                                  MODFLOW-2005     
      U.S. GEOLOGICAL SURVEY MODULAR FINITE-DIFFERENCE GROUND-WATER FLOW MODEL
                       VERSION 1.6.01 3/4/2009, with FMP2

 LIST FILE: ex1.lst
                         UNIT    7

 OPENING ex1tr.lpf
 FILE TYPE:LPF   UNIT    9   STATUS:OLD    
 FORMAT:FORMATTED              ACCESS:SEQUENTIAL          

 OPENING ex1tr.ba6
 FILE TYPE:BAS6   UNIT   10   STATUS:OLD    
 FORMAT:FORMATTED              ACCESS:SEQUENTIAL          

 OPENING ex1tr.dis
 FILE TYPE:DIS   UNIT   11   STATUS:OLD    
 FORMAT:FORMATTED              ACCESS:SEQUENTIAL          

 OPENING ex1tr2.fmp
 FILE TYPE:FMP   UNIT   12   STATUS:OLD    
 FORMAT:FORMATTED              ACCESS:SEQUENTIAL          

 OPENING ex1tr.sfr
 FILE TYPE:SFR   UNIT   14   STATUS:OLD    
 FORMAT:FORMATTED              ACCESS:SEQUENTIAL          

 OPENING ex1_MN.mnw
 FILE TYPE:MNW1   UNIT   15   STATUS:OLD    
 FORMAT:FORMATTED              ACCESS:SEQUENTIAL          

 OPENING ex1tr.ghb
 FILE TYPE:GHB   UNIT   16   STATUS:OLD    
 FORMAT:FORMATTED              ACCESS:SEQUENTIAL          

 OPENING ex1tr.uzf
 FILE TYPE:UZF   UNIT   17   STATUS:OLD    
 FORMAT:FORMATTED              ACCESS:SEQUENTIAL          

 OPENING ex1.pcg
 FILE TYPE:PCG   UNIT   18   STATUS:OLD    
 FORMAT:FORMATTED              ACCESS:SEQUENTIAL          

 OPENING ex1tr.oc
 FILE TYPE:OC   UNIT   19   STATUS:OLD    
 FORMAT:FORMATTED              ACCESS:SEQUENTIAL          

 OPENING hyd_all.hyd
 FILE TYPE:HYD   UNIT   21   STATUS:OLD    
 FORMAT:FORMATTED              ACCESS:SEQUENTIAL          

 OPENING ex1.hed
 FILE TYPE:DATA   UNIT   22   STATUS:UNKNOWN
 FORMAT:FORMATTED              ACCESS:SEQUENTIAL          

 OPENING OFE.in
 FILE TYPE:DATA   UNIT   20   STATUS:UNKNOWN
 FORMAT:FORMATTED              ACCESS:SEQUENTIAL          

 OPENING ROOT.IN
 FILE TYPE:DATA   UNIT   30   STATUS:UNKNOWN
 FORMAT:FORMATTED              ACCESS:SEQUENTIAL          

 OPENING KC.in
 FILE TYPE:DATA   UNIT   40   STATUS:UNKNOWN
 FORMAT:FORMATTED              ACCESS:SEQUENTIAL          

 OPENING FTE.in
 FILE TYPE:DATA   UNIT   50   STATUS:UNKNOWN
 FORMAT:FORMATTED              ACCESS:SEQUENTIAL          

 OPENING INEFFSW.IN
 FILE TYPE:DATA   UNIT   60   STATUS:UNKNOWN
 FORMAT:FORMATTED              ACCESS:SEQUENTIAL          

 OPENING NRDFAC.IN
 FILE TYPE:DATA   UNIT   80   STATUS:UNKNOWN
 FORMAT:FORMATTED              ACCESS:SEQUENTIAL          

 OPENING CBC.OUT
 FILE TYPE:DATA(BINARY)   UNIT   70   STATUS:UNKNOWN
 FORMAT:BINARY                 ACCESS:SEQUENTIAL          

 OPENING hyd_all.sav
 FILE TYPE:DATA(BINARY)   UNIT   71   STATUS:UNKNOWN
 FORMAT:BINARY                 ACCESS:SEQUENTIAL          

 OPENING f5&8bin.uzfot
 FILE TYPE:DATA(BINARY)   UNIT   61   STATUS:UNKNOWN
 FORMAT:BINARY                 ACCESS:SEQUENTIAL          

 OPENING f5_r2c2.opt1
 FILE TYPE:DATA   UNIT   62   STATUS:UNKNOWN
 FORMAT:FORMATTED              ACCESS:SEQUENTIAL          

 OPENING f5_r3c3.opt2
 FILE TYPE:DATA   UNIT   63   STATUS:UNKNOWN
 FORMAT:FORMATTED              ACCESS:SEQUENTIAL          

 OPENING f5_r4c4.opt3
 FILE TYPE:DATA   UNIT   64   STATUS:UNKNOWN
 FORMAT:FORMATTED              ACCESS:SEQUENTIAL          

 OPENING f5_r5c4.opt2
 FILE TYPE:DATA   UNIT   65   STATUS:UNKNOWN
 FORMAT:FORMATTED              ACCESS:SEQUENTIAL          

 OPENING f8_r10c20.opt2
 FILE TYPE:DATA   UNIT   66   STATUS:UNKNOWN
 FORMAT:FORMATTED              ACCESS:SEQUENTIAL          

 OPENING f5&8.uzfot
 FILE TYPE:DATA   UNIT   67   STATUS:UNKNOWN
 FORMAT:FORMATTED              ACCESS:SEQUENTIAL          

 BAS -- BASIC PACKAGE, VERSION 7, 5/2/2005 INPUT READ FROM UNIT   10

 DISCRETIZATION INPUT DATA READ FROM UNIT   11
 # generic model 1 transient discretization file
    4 LAYERS        23 ROWS        20 COLUMNS
   24 STRESS PERIOD(S) IN SIMULATION
 MODEL TIME UNIT IS DAYS
 MODEL LENGTH UNIT IS METERS
  Confining bed flag for each layer:
   1   1   1   0

                     DELR =   500.000    

                     DELC =   500.000    

 OPENING FILE ON UNIT   99:
 GSE.IN                                                                                                                                                                                                  



           TOP ELEVATION OF LAYER 1
 READING ON UNIT   99 WITH FORMAT: (FREE)              

   MODEL LAYER BOTTOM EL. =   205.000     FOR LAYER   1

 BOT. EL. OF QUASI-3D BED =   200.000     FOR LAYER   1

   MODEL LAYER BOTTOM EL. =   140.000     FOR LAYER   2

 BOT. EL. OF QUASI-3D BED =   125.000     FOR LAYER   2

   MODEL LAYER BOTTOM EL. =   65.0000     FOR LAYER   3

 BOT. EL. OF QUASI-3D BED =   60.0000     FOR LAYER   3

   MODEL LAYER BOTTOM EL. =   0.00000     FOR LAYER   4


 STRESS PERIOD     LENGTH       TIME STEPS     MULTIPLIER FOR DELT    SS FLAG
 ----------------------------------------------------------------------------
        1         30.42000          2                    1.000         TR
        2         30.42000          2                    1.000         TR
        3         30.42000          2                    1.000         TR
        4         30.42000          2                    1.000         TR
        5         30.42000          2                    1.000         TR
        6         30.42000          2                    1.000         TR
        7         30.42000          2                    1.000         TR
        8         30.42000          2                    1.000         TR
        9         30.42000          2                    1.000         TR
       10         30.42000          2                    1.000         TR
       11         30.42000          2                    1.000         TR
       12         30.42000          2                    1.000         TR
       13         30.42000          2                    1.000         TR
       14         30.42000          2                    1.000         TR
       15         30.42000          2                    1.000         TR
       16         30.42000          2                    1.000         TR
       17         30.42000          2                    1.000         TR
       18         30.42000          2                    1.000         TR
       19         30.42000          2                    1.000         TR
       20         30.42000          2                    1.000         TR
       21         30.42000          2                    1.000         TR
       22         30.42000          2                    1.000         TR
       23         30.42000          2                    1.000         TR
       24         30.42000          2                    1.000         TR

 TRANSIENT SIMULATION



 
 # generic model 1                                                               
 THE FREE FORMAT OPTION HAS BEEN SELECTED

           BOUNDARY ARRAY =              1 FOR LAYER   1

           BOUNDARY ARRAY =              1 FOR LAYER   2

           BOUNDARY ARRAY =              1 FOR LAYER   3

           BOUNDARY ARRAY =              1 FOR LAYER   4

 AQUIFER HEAD WILL BE SET TO  -999.00     AT ALL NO-FLOW NODES (IBOUND=0).



                       INITIAL HEAD FOR LAYER   1
 READING ON UNIT   10 WITH FORMAT: (FREE)              



                       INITIAL HEAD FOR LAYER   2
 READING ON UNIT   10 WITH FORMAT: (FREE)              



                       INITIAL HEAD FOR LAYER   3
 READING ON UNIT   10 WITH FORMAT: (FREE)              



                       INITIAL HEAD FOR LAYER   4
 READING ON UNIT   10 WITH FORMAT: (FREE)              

 OUTPUT CONTROL IS SPECIFIED ONLY AT TIME STEPS FOR WHICH OUTPUT IS DESIRED
 HEADS WILL BE SAVED WITH FORMAT: (100F8.2)           
 SAVED HEADS WILL BE LABELED
 COMPACT CELL-BY-CELL BUDGET FILES WILL BE WRITTEN
 HEAD PRINT FORMAT CODE IS  -3    DRAWDOWN PRINT FORMAT CODE IS   0
 HEADS WILL BE SAVED ON UNIT   22    DRAWDOWNS WILL BE SAVED ON UNIT    0

 LPF -- LAYER-PROPERTY FLOW PACKAGE, VERSION 7, 5/2/2005
         INPUT READ FROM UNIT    9
 CELL-BY-CELL FLOWS WILL BE SAVED ON UNIT   70
 HEAD AT CELLS THAT CONVERT TO DRY=   2222.0    
 No named parameters

   LAYER FLAGS:
 LAYER       LAYTYP        LAYAVG         CHANI        LAYVKA        LAYWET
 ---------------------------------------------------------------------------
    1             1             0     1.000E+00             1             0
    2             0             0     1.000E+00             1             0
    3             0             0     1.000E+00             1             0
    4             0             0     1.000E+00             1             0

   INTERPRETATION OF LAYER FLAGS:
                        INTERBLOCK     HORIZONTAL    DATA IN
         LAYER TYPE   TRANSMISSIVITY   ANISOTROPY   ARRAY VKA   WETTABILITY
 LAYER      (LAYTYP)      (LAYAVG)       (CHANI)      (LAYVKA)      (LAYWET)
 ---------------------------------------------------------------------------
    1   CONVERTIBLE      HARMONIC     1.000E+00    ANISOTROPY  NON-WETTABLE
    2      CONFINED      HARMONIC     1.000E+00    ANISOTROPY  NON-WETTABLE
    3      CONFINED      HARMONIC     1.000E+00    ANISOTROPY  NON-WETTABLE
    4      CONFINED      HARMONIC     1.000E+00    ANISOTROPY  NON-WETTABLE

 WETTING CAPABILITY IS NOT ACTIVE IN ANY LAYER

    HYD. COND. ALONG ROWS =   10.0000     FOR LAYER   1

  HORIZ. TO VERTICAL ANI. =   1.00000     FOR LAYER   1

         SPECIFIC STORAGE =  1.000000E-05 FOR LAYER   1

           SPECIFIC YIELD =  2.000000E-02 FOR LAYER   1

 QUASI3D VERT. HYD. COND. =  2.000000E-03 FOR LAYER   1

    HYD. COND. ALONG ROWS =   1.50000     FOR LAYER   2

  HORIZ. TO VERTICAL ANI. =   1.00000     FOR LAYER   2

         SPECIFIC STORAGE =  1.000000E-05 FOR LAYER   2

 QUASI3D VERT. HYD. COND. =  1.000000E-03 FOR LAYER   2

    HYD. COND. ALONG ROWS =   1.00000     FOR LAYER   3

  HORIZ. TO VERTICAL ANI. =   1.00000     FOR LAYER   3

         SPECIFIC STORAGE =  1.000000E-05 FOR LAYER   3

 QUASI3D VERT. HYD. COND. =  5.000000E-04 FOR LAYER   3

    HYD. COND. ALONG ROWS =  0.150000     FOR LAYER   4

  HORIZ. TO VERTICAL ANI. =   1.00000     FOR LAYER   4

         SPECIFIC STORAGE =  1.000000E-05 FOR LAYER   4

 GHB -- GENERAL-HEAD BOUNDARY PACKAGE, VERSION 7, 5/2/2005
         INPUT READ FROM UNIT   16
 No named parameters
 MAXIMUM OF     92 ACTIVE GHB CELLS AT ONE TIME
 CELL-BY-CELL FLOWS WILL BE SAVED ON UNIT   70


     0 GHB parameters

 SFR7 -- STREAMFLOW ROUTING PACKAGE, VERSION 7.1.01, 02/15/2009
         INPUT READ FROM UNIT  14
 # Project 1 New Stream Aquifer Package


 NUMBER OF STREAM REACHES IS  100

 NUMBER OF STREAM SEGMENTS IS   11

 NUMBER OF STREAM PARAMETERS IS    0

 NUMBER OF STREAM SEGMENTS DEFINED USING PARAMETERS IS              0

 MAXIMUM ERROR FOR STREAM LEAKAGE RATES IS  1.00E-04

 CONSTANT FOR MANNINGS EQUATION IS  8.6400E+04

 FLOW TO AND FROM GROUND WATER FOR EACH STREAM REACH WILL BE SAVED ON UNIT 70


   STREAM NETWORK DESCRIPTION: 

   LAYER    ROW    COL   SEGMENT   REACH     LENGTH
                          NUMBER   NUMBER    IN CELL
   --------------------------------------------------
      1     13      1       1        1    5.0000E+02
      1     13      2       1        2    5.0000E+02
      1     13      3       1        3    2.5000E+02
      1     13      3       2        1    2.5000E+02
      1     12      3       2        2    5.0000E+02
      1     11      3       2        3    5.0000E+02
      1     10      3       2        4    5.0000E+02
      1      9      3       2        5    5.0000E+02
      1      8      3       2        6    5.0000E+02
      1      7      3       2        7    5.0000E+02
      1      6      3       2        8    5.0000E+02
      1      5      3       2        9    5.0000E+02
      1      4      3       2       10    5.0000E+02
      1      3      3       2       11    5.0000E+02
      1      3      4       2       12    5.0000E+02
      1      3      5       2       13    5.0000E+02
      1      3      6       2       14    5.0000E+02
      1      3      7       2       15    5.0000E+02
      1      3      8       2       16    5.0000E+02
      1      3      9       2       17    5.0000E+02
      1      3     10       2       18    5.0000E+02
      1      3     11       2       19    5.0000E+02
      1      3     12       2       20    5.0000E+02
      1      4     12       2       21    5.0000E+02
      1      5     12       2       22    5.0000E+02
      1      6     12       2       23    5.0000E+02
      1      7     12       2       24    5.0000E+02
      1      8     12       2       25    5.0000E+02
      1      9     12       2       26    5.0000E+02
      1     10     12       2       27    2.5000E+02
      1     10      7       3        1    2.5000E+02
      1     10      8       3        2    5.0000E+02
      1     10      9       3        3    5.0000E+02
      1     10     10       3        4    5.0000E+02
      1     10     11       3        5    5.0000E+02
      1     10     12       3        6    2.5000E+02
      1     10     12       4        1    2.5000E+02
      1     11     12       4        2    5.0000E+02
      1     12     12       4        3    5.0000E+02
      1     13     12       4        4    2.5000E+02
      1     13      3       5        1    2.5000E+02
      1     13      4       5        2    5.0000E+02
      1     13      5       5        3    2.5000E+02
      1     13      5       6        1    2.5000E+02
      1     14      5       6        2    5.0000E+02
      1     15      5       6        3    5.0000E+02
      1     16      5       6        4    5.0000E+02
      1     17      5       6        5    5.0000E+02
      1     18      5       6        6    5.0000E+02
      1     19      5       6        7    5.0000E+02
      1     20      5       6        8    5.0000E+02
      1     20      6       6        9    5.0000E+02
      1     20      7       6       10    5.0000E+02
      1     20      8       6       11    5.0000E+02
      1     20      9       6       12    5.0000E+02
      1     20     10       6       13    5.0000E+02
      1     20     11       6       14    5.0000E+02
      1     20     12       6       15    5.0000E+02
      1     20     13       6       16    5.0000E+02
      1     20     14       6       17    5.0000E+02
      1     20     15       6       18    5.0000E+02
      1     20     16       6       19    5.0000E+02
      1     20     17       6       20    5.0000E+02
      1     19     17       6       21    5.0000E+02
      1     18     17       6       22    5.0000E+02
      1     17     17       6       23    5.0000E+02
      1     16     17       6       24    2.5000E+02
      1     16      7       7        1    2.5000E+02
      1     16      8       7        2    5.0000E+02
      1     16      9       7        3    5.0000E+02
      1     16     10       7        4    5.0000E+02
      1     16     11       7        5    5.0000E+02
      1     16     12       7        6    5.0000E+02
      1     16     13       7        7    5.0000E+02
      1     16     14       7        8    5.0000E+02
      1     16     15       7        9    5.0000E+02
      1     16     16       7       10    5.0000E+02
      1     16     17       7       11    2.5000E+02
      1     16     17       8        1    2.5000E+02
      1     15     17       8        2    5.0000E+02
      1     14     17       8        3    5.0000E+02
      1     13     17       8        4    2.5000E+02
      1     13      5       9        1    2.5000E+02
      1     13      6       9        2    5.0000E+02
      1     13      7       9        3    5.0000E+02
      1     13      8       9        4    5.0000E+02
      1     13      9       9        5    5.0000E+02
      1     13     10       9        6    5.0000E+02
      1     13     11       9        7    5.0000E+02
      1     13     12       9        8    2.5000E+02
      1     13     12      10        1    2.5000E+02
      1     13     13      10        2    5.0000E+02
      1     13     14      10        3    5.0000E+02
      1     13     15      10        4    5.0000E+02
      1     13     16      10        5    5.0000E+02
      1     13     17      10        6    2.5000E+02
      1     13     17      11        1    2.5000E+02
      1     13     18      11        2    5.0000E+02
      1     13     19      11        3    5.0000E+02
      1     13     20      11        4    5.0000E+02




 UZF1 -- UNSATURATED FLOW PACKAGE, VERSION 1.2, 01/14/2006
         INPUT READ FROM UNIT 17



            AREAL EXTENT OF UZ FLOW
 READING ON UNIT   17 WITH FORMAT: (FREE)              
 OPTION 3 -- RECHARGE IN UZF TO HIGHEST ACTIVE NODE IN EACH VERTICAL COLUMN



            ROUTING OVERLAND RUNOFF
 READING ON UNIT   17 WITH FORMAT: (FREE)              



               SATURATED VERTICAL K
 READING ON UNIT   17 WITH FORMAT: (FREE)              

     BROOKS-COREY EPSILON =   3.50000    

  SATURATED WATER CONTENT =  0.200000    

    INITIAL WATER CONTENT =  0.160000    

UNSATURATED FLOW RESULTS WILL BE PRINTED TO SEPARATE FILES FOR SELECTED MODEL CELLS, AND TIME STEPS AS DEFINED BY OUTPUT CONTROL PACKAGE 

SELECTED MODEL CELLS ARE: 
 ROW NUMBER  COLUMN NUMBER  FORTRAN UNIT NUMBER  OUTPUT OPTION


       2             2                 62                 1
       3             3                 63                 2
       4             4                 64                 1
       5             4                 65                 2
      10            20                 66                 2
       0             0                 67                 4

 PCG -- CONJUGATE-GRADIENT SOLUTION PACKAGE, VERSION 7, 5/2/2005
 MAXIMUM OF    100 CALLS OF SOLUTION ROUTINE
 MAXIMUM OF     10 INTERNAL ITERATIONS PER CALL TO SOLUTION ROUTINE
 MATRIX PRECONDITIONING TYPE :    1



                                    SOLUTION BY THE CONJUGATE-GRADIENT METHOD
                                   -------------------------------------------
                    MAXIMUM NUMBER OF CALLS TO PCG ROUTINE =      100
                        MAXIMUM ITERATIONS PER CALL TO PCG =       10
                               MATRIX PRECONDITIONING TYPE =        1
        RELAXATION FACTOR (ONLY USED WITH PRECOND. TYPE 1) =    0.10000E+01
 PARAMETER OF POLYNOMIAL PRECOND. = 2 (2) OR IS CALCULATED :        2
                         HEAD CHANGE CRITERION FOR CLOSURE =    0.10000E-02
                     RESIDUAL CHANGE CRITERION FOR CLOSURE =    0.10000E+02
            PCG HEAD AND RESIDUAL CHANGE PRINTOUT INTERVAL =        1
     PRINTING FROM SOLVER IS LIMITED(1) OR SUPPRESSED (>1) =        1
                            STEADY-STATE DAMPING PARAMETER =    0.10000E+01
                               TRANSIENT DAMPING PARAMETER =    0.10000E+01

 MNW7 -- MULTI-NODE WELL PACKAGE, VERSION 7, 11/07/2005.
    INPUT READ FROM UNIT  15
 MAXIMUM OF             18 WELLS
 CELL-BY-CELL FLOWS WILL BE RECORDED ON UNIT 70
  The heads at the beginning of SP:   1 will be the default reference elevations.

 Flow rates will not be estimated after the9999th iteration

  A WEL1   data input file will be written to t.wl1 on unit   91                

  A BYNODE data input file will be written to t.ByNode on unit   92             

  A QSUM   data input file will be written to t.Qsum on unit   93               

 HYD -- HYDROGRAPH DATA FOR BAS PACKAGE, VERSION 7, 07/14/2006
         INPUT READ FROM UNIT 21
 HYDROGRAPH VALUES WILL BE SAVED ON UNIT:  71
 HYDROGRAPH VALUES AT DRY CELLS WILL BE:   -999.00    

 ARR INTYP  KLAY     XL            YL         HYDLBL
 ----------------------------------------------------------------
 HD   I      1   3.75000E+03   8.75000E+03  HDI001insideF2_L1   
 HD   I      2   3.75000E+03   8.75000E+03  HDI002insideF2_L2   
 HD   I      1   6.75000E+03   4.25000E+03  HDI001northofF4_L1  
 HD   I      2   6.75000E+03   4.25000E+03  HDI002northofF4_L2  


 FMP2 -- FARM PROCESS, VERSION 2.X, 10/25/2009 17:56:14
 INPUT READ FROM UNIT
 # FMP2 Example Model -- ZERO SCENARIO / EQUAL APPROPRATION
               1 Named Parameters                  15 List entries

 DIMENSIONS:
   MAXIMUM OF     15 FARM WELLS
   TOTAL OF        8 FARMS
   TOTAL OF        3 SOIL-TYPES
   TOTAL OF        6 CROP-TYPES

 WHEN TO READ SETTINGS:
   ROOT ZONE DEPTHS ............................  SPECIFIED FOR EACH STRESS PERIOD
   PRECIPITATION FLUX ..........................  SPECIFIED FOR EACH STRESS PERIOD
   FRACTIONS OF TRANS. & EVAP. OF CONSUMPTIVE USE SPECIFIED FOR EACH STRESS PERIOD
   FRACTIONS OF IN-EFFICIENT LOSSES TO SW-RUNOFF  SPECIFIED FOR EACH STRESS PERIOD
   ON-FARM EFFICIENCIES ........................  SPECIFIED FOR EACH STRESS PERIOD

 WATER POLICY SETTINGS:
   EFFICIENCY BEHAVIOR: CONSERVATIVE BEHAVIOR: CONSTANT EFFICIENCY OVER A TIME STEP
                        EFFICIENCY DOES NOT VARY WITH CHANGING GROUNDWATER LEVEL, BUT
                        DELIVERY MAY VARY WITH CHANGING GROUNDWATER LEVEL
                        EFF. RESET TO SPEC. EFF. AT BEG. OF EACH TIME STEP
   NO DEFICIENCY SCENARIO APPLIED (ZERO SCENARIO)
     ASSUMPTION FOR DEFICIENCY CASE: SUPPLY = DEMAND, I.E.
     SUPPLY SUFFICIENTLY SUPPLEMENTED FROM OUTSIDE MODELING DOMAIN
   NO NON-IRRIGATION-SEASON HAS BEEN SELECTED

 CONSUMPTIVE USE CONCEPT 1: Tgw-act-max < Tc-act-max < Tpot
   (REDUCTION OF ACTUAL TRANSPIRATION ~ RED. OF ROOT ZONE BY ZONES OF WILTING & ANOXIA
    APPROXIMATED BY CROP- & SOIL-TYPE SPECIFIC ANALYTICAL SOLUTION)

 SURFACE-WATER SETTINGS (SUPPLY / RETURNFLOW / RIGHTS:
   FARM DELIVERY REQUIREMENT SUPPLIED BY:
     NON-ROUTED SURFACE-WATER DELIVERIES (FIRST PRIORITY).
     MAXIMUM NUMBER OF NON-ROUTED DELIVERY TYPES =    1
   FARM DELIVERY REQUIREMENT SUPPLIED BY:
     SEMI-ROUTED SURFACE-WATER DELIVERIES (SECOND PRIORITY).
     DIVERSION REACHES FOR SEMI-ROUTED DELIVERIES SPECIFIED FOR THE ENTIRE SIMULATION
   NO ROUTED SURFACE-WATER DELIVERY EXISTS
   FARM RUNOFF RETURNED TO STREAM-NETWORK BY:
     SEMI-ROUTED SURFACE-WATER RETURNFLOW
     (NON-ROUTED TO & ROUTED FROM SPECIFIED REACH THAT IS OUTSIDE THE FARM)
     REACHES RECEIVING SEMI-ROUTED RETURNFLOW ..  SPECIFIED FOR THE ENTIRE SIMULATION
   FARM RUNOFF RETURNED TO STREAM-NETWORK BY:
     FULLY ROUTED SURFACE-WATER RETURNFLOW
     FROM FARMS WITHOUT SPECIFIED SEMI-ROUTED RETURNFLOW LOCATIONS
     TO ALL REACHES OF ANY STREAM SEGMENT LOCATED WITHIN EACH FARM
   EQUAL APPROPRIATION ALLOTMENT HEIGHT SELECTED

 PRINT SETTINGS:
   FARM WELL FLOW RATES:
     A LIST (NODE, RATE) WILL BE SAVED AS BINARY FILE ON UNIT 70
     FOR TIME STEPS, FOR WHICH IN OUTPUT CONTOL
     "SAVE BUDGET" IS SPECIFIED (USING WORDS), OR ICBCFL IS NOT 0 (USING NUMERIC CODES)
   FARM NET RECHARGE FLOW RATES:
     A 2D INTEGER-ARRAY OF EACH CELLS UPPERMOST ACTIVE LAYER, AND
     A 2D REAL-ARRAY OF EACH CELLS NET RECHARGE RATE 
     WILL BE SAVED AS BINARY FILE ON UNIT 70 FOR TIME STEPS, FOR WHICH IN OUTPUT CONTOL
     "SAVE BUDGET" IS SPECIFIED (USING WORDS), OR ICBCFL IS NOT 0 (USING NUMERIC CODES)
   FARM DEMAND & SUPPLY FLOW RATES:
     A LIST OF INITIAL DEMAND & SUPPLY FLOW RATES, AND OF
     FINAL DEMAND AND SUPPLY FLOW RATES AFTER THE APPLICATION OF A DEFICIENCY SCENARIO
     WILL BE SAVED ON ASCII-FILE "FDS.OUT" FOR ALL TIME STEPS.  LIST =
     (PER,TSTP,TIME,FID,OFE,
      TFDR-INI,NR-SWD-INI,R-SWD-INI,QREQ,TFDR-FIN,NR-SWD-FIN,R-SWD-FIN,QREQ,Q,DEF-FLAG)
     (<-- BEFORE DEFICIENCY SCENARIO --> <--       AFTER DEFICIENCY SCENARIO       -->)
   DETAILED FARM BUDGET:
     A LIST OF VOLUMETRIC FLOW RATES FOR ANY TIME STEP [L^3/T], AND OF CUMULATIVE VOLUMES [L^3] 
     WILL BE SAVED ON ASCII-FILE "FB_DETAILS.OUT" FOR ALL TIME STEPS.
      LIST = (PER,TSTP,TIME,FID;
      RATES INTO FARM: Q-p-in, Q-nrd-in, Q-srd-in, Q-rd-in, Q-wells-in, Q-egw-in, Q-tgw-in, Q-ext-in, Q-tot-in,
      RATES OUT OF FARM: Q-ei-out, Q-ep-out, Q-egw-out, Q-ti-out, Q-tp-out, Q-tgw-out Q-run-out, Q-dp-out, Q-nrd-out, Q-srd-out, Q-rd-out, Q-wells-out, Q-tot-out,
      RATE BUDGET ERROR: Q-in-minus-out, Q-Discrepancy [%];
      CUMULATIVE VOLUMES INTO FARM: V-p-in, V-nrd-in, V-srd-in, V-rd-in, V-wells-in, V-egw-in, V-tgw-in, V-ext-in, V-tot-in,
      CUMULATIVE VOLUMES OUT OF FARM: V-ei-out, V-ep-out, V-egw-out, V-ti-out, V-tp-out, V-tgw-out V-run-out, V-dp-out, V-nrd-out, V-srd-out, V-rd-out, V-wells-out, V-tot-out,
      VOLUMETRIC BUDGET ERROR: Q-in-minus-out, Q-Discrepancy [%])
   ROUTING INFOMATION:
     WRITTEN TO ASCII FILE "ROUT.OUT" FOR FIRST STRESS PERIOD ONLY
 
 AUXILIARY FARM WELL PARAMETER: QMAXRESET       


     1 Farm Well parameters

 PARAMETER NAME:WELLS1       TYPE:QMAX
 Parameter value from package file is:    1000.0    
   NUMBER OF ENTRIES:     15

 OPENING FILE ON UNIT   99:
 WELLS.IN                                                                                                                                                                                                                                                                                                                                                                                                                                                                                                            

 WELL NO. LAYER    ROW    COL  F-WELL ID    FARM ID      QMAXfac         QMAXRESET       
 ----------------------------------------------------------------------------------------
       1      1      5      6          1          1      5.0000E+00      0.0000E+00
       2      1      8      6          2          1      5.0000E+00      0.0000E+00
       3      1      8      9          3          1      5.0000E+00      0.0000E+00
       4      1      5      9          4          2      3.0000E+00      0.0000E+00
       5      1      6     10          5          2      2.0000E+00      0.0000E+00
       6      1      7     11          6          2      1.0000E+00      0.0000E+00
       7      1     18      3          7          3      2.0000E+00      0.0000E+00
       8      1     21      3          8          3      4.0000E+00      0.0000E+00
       9      1     18     19          9          4      3.0000E+00      0.0000E+00
      10      1     21     19         10          4      5.0000E+00      0.0000E+00
      11      0      6      2        -11          5      5.0000E+00      1.0000E+00
      12      0      8      2        -12          5      5.0000E+00      1.0000E+00
      13      0     10      2        -13          5      5.0000E+00      1.0000E+00
      14      0      3     19        -14          6      1.0000E+01      1.0000E+00
      15      0      6     17        -15          6      6.0000E+00      1.0000E+00

 OPENING FILE ON UNIT   99:
 GSE.IN                                                                                                                                                                                                  



                     GROUND SURFACE
 READING ON UNIT   99 WITH FORMAT: (FREE)              

 OPENING FILE ON UNIT   99:
 FID.IN                                                                                                                                                                                                  



                FARM IDENTIFICATION
 READING ON UNIT   99 WITH FORMAT: (FREE)              

 OPENING FILE ON UNIT   99:
 SID.IN                                                                                                                                                                                                  



           SOIL TYPE IDENTIFICATION
 READING ON UNIT   99 WITH FORMAT: (FREE)              

 OPENING FILE ON UNIT  99:
 SOILLIST.IN                                                                                                                                                                                                                                                                                                                                                                                                                                                                                                         

 OPENING FILE ON UNIT   99:
 CID.IN                                                                                                                                                                                                  



                CROP IDENTIFICATION
 READING ON UNIT   99 WITH FORMAT: (FREE)              

 OPENING FILE ON UNIT  99:
 PSI.IN                                                                                                                                                                                                                                                                                                                                                                                                                                                                                                              

 OPENING FILE ON UNIT  99:
 SRD.IN                                                                                                                                                                                                                                                                                                                                                                                                                                                                                                              

 SEMI-ROUTED DELIVERIES TO FARMS (LOCATION OF DIVERSION-POINT):
 FARM-ID    ROW    COLUMN   SEGMENT     REACH
       1      3         5         2        13
       2      3         8         2        16
       3     17         5         6         5
       4     20        12         6        15
       5      0         0         0         0
       6     13        15        10         4
       7      0         0         0         0
       8      0         0         0         0

 OPENING FILE ON UNIT  99:
 SRR.IN                                                                                                                                                                                                                                                                                                                                                                                                                                                                                                              

 SEMI-ROUTED RUNOFF-RETURNFLOW FROM FARMS (LOCATION WHERE RUNOFF ENTERS A STREAM REACH):
 FARM-ID    ROW    COLUMN   SEGMENT     REACH
       1      0         0         3         2
       2      0         0         0         0
       3      0         0         0         0
       4      0         0         0         0
       5      0         0         0         0
       6      0         0         0         0
       7      0         0         0         0
       8      0         0         0         0
1
                            STRESS PERIOD NO.    1, LENGTH =   30.42000    
                            -----------------------------------------------

                              NUMBER OF TIME STEPS =     2

                               MULTIPLIER FOR DELT =     1.000

                            INITIAL TIME STEP SIZE =   15.21000    

 BOUND. NO. LAYER   ROW   COL     STAGE      CONDUCTANCE         
 ----------------------------------------------------------------
      1      1      1      1       296.2           39.00    
      2      1      2      1       296.2           39.00    
      3      1      3      1       296.2           39.00    
      4      1      4      1       296.2           39.00    
      5      1      5      1       296.2           39.00    
      6      1      6      1       296.2           39.00    
      7      1      7      1       296.2           39.00    
      8      1      8      1       296.2           39.00    
      9      1      9      1       296.2           39.00    
     10      1     10      1       296.2           39.00    
     11      1     11      1       296.2           39.00    
     12      1     12      1       296.2           39.00    
     13      1     13      1       296.2           39.00    
     14      1     14      1       296.2           39.00    
     15      1     15      1       296.2           39.00    
     16      1     16      1       296.2           39.00    
     17      1     17      1       296.2           39.00    
     18      1     18      1       296.2           39.00    
     19      1     19      1       296.2           39.00    
     20      1     20      1       296.2           39.00    
     21      1     21      1       296.2           39.00    
     22      1     22      1       296.2           39.00    
     23      1     23      1       296.2           39.00    
     24      1      1     20       254.0           32.42    
     25      1      2     20       254.0           32.42    
     26      1      3     20       254.0           32.42    
     27      1      4     20       254.0           32.42    
     28      1      5     20       254.0           32.42    
     29      1      6     20       254.0           32.42    
     30      1      7     20       254.0           32.42    
     31      1      8     20       254.0           32.42    
     32      1      9     20       254.0           32.42    
     33      1     10     20       254.0           32.42    
     34      1     11     20       254.0           32.42    
     35      1     12     20       254.0           32.42    
     36      1     13     20       254.0           32.42    
     37      1     14     20       254.0           32.42    
     38      1     15     20       254.0           32.42    
     39      1     16     20       254.0           32.42    
     40      1     17     20       254.0           32.42    
     41      1     18     20       254.0           32.42    
     42      1     19     20       254.0           32.42    
     43      1     20     20       254.0           32.42    
     44      1     21     20       254.0           32.42    
     45      1     22     20       254.0           32.42    
     46      1     23     20       254.0           32.42    
     47      2      1      1       284.2           4.500    
     48      2      2      1       284.2           4.500    
     49      2      3      1       284.2           4.500    
     50      2      4      1       284.2           4.500    
     51      2      5      1       284.2           4.500    
     52      2      6      1       284.2           4.500    
     53      2      7      1       284.2           4.500    
     54      2      8      1       284.2           4.500    
     55      2      9      1       284.2           4.500    
     56      2     10      1       284.2           4.500    
     57      2     11      1       284.2           4.500    
     58      2     12      1       284.2           4.500    
     59      2     13      1       284.2           4.500    
     60      2     14      1       284.2           4.500    
     61      2     15      1       284.2           4.500    
     62      2     16      1       284.2           4.500    
     63      2     17      1       284.2           4.500    
     64      2     18      1       284.2           4.500    
     65      2     19      1       284.2           4.500    
     66      2     20      1       284.2           4.500    
     67      2     21      1       284.2           4.500    
     68      2     22      1       284.2           4.500    
     69      2     23      1       284.2           4.500    
     70      2      1     20       283.7           4.500    
     71      2      2     20       283.7           4.500    
     72      2      3     20       283.7           4.500    
     73      2      4     20       283.7           4.500    
     74      2      5     20       283.7           4.500    
     75      2      6     20       283.7           4.500    
     76      2      7     20       283.7           4.500    
     77      2      8     20       283.7           4.500    
     78      2      9     20       283.7           4.500    
     79      2     10     20       283.7           4.500    
     80      2     11     20       283.7           4.500    
     81      2     12     20       283.7           4.500    
     82      2     13     20       283.7           4.500    
     83      2     14     20       283.7           4.500    
     84      2     15     20       283.7           4.500    
     85      2     16     20       283.7           4.500    
     86      2     17     20       283.7           4.500    
     87      2     18     20       283.7           4.500    
     88      2     19     20       283.7           4.500    
     89      2     20     20       283.7           4.500    
     90      2     21     20       283.7           4.500    
     91      2     22     20       283.7           4.500    
     92      2     23     20       283.7           4.500    

     92 GHB CELLS



 CLASSIFICATION & COUNT OF STREAM SEGMENTS BASED ON SOURCE OF INFLOW:

                HEADWATER     DIVERSION     RECEIVES TRIBUTARY FLOW
                ---------     ---------     -----------------------
                     3              2               6




 SLOPE FOR SEGMENT AND REACH      2     1 IS WITH  0.000E+00 LESS THAN 1.0E-07: SETTING SLOPE TO 1.0E-06 
 SLOPE FOR SEGMENT AND REACH      2     2 IS WITH  0.000E+00 LESS THAN 1.0E-07: SETTING SLOPE TO 1.0E-06 
 SLOPE FOR SEGMENT AND REACH      2     3 IS WITH  0.000E+00 LESS THAN 1.0E-07: SETTING SLOPE TO 1.0E-06 
 SLOPE FOR SEGMENT AND REACH      2     4 IS WITH  0.000E+00 LESS THAN 1.0E-07: SETTING SLOPE TO 1.0E-06 
 SLOPE FOR SEGMENT AND REACH      2     5 IS WITH  0.000E+00 LESS THAN 1.0E-07: SETTING SLOPE TO 1.0E-06 
 SLOPE FOR SEGMENT AND REACH      2     6 IS WITH  0.000E+00 LESS THAN 1.0E-07: SETTING SLOPE TO 1.0E-06 
 SLOPE FOR SEGMENT AND REACH      2     7 IS WITH  0.000E+00 LESS THAN 1.0E-07: SETTING SLOPE TO 1.0E-06 
 SLOPE FOR SEGMENT AND REACH      2     8 IS WITH  0.000E+00 LESS THAN 1.0E-07: SETTING SLOPE TO 1.0E-06 
 SLOPE FOR SEGMENT AND REACH      2     9 IS WITH  0.000E+00 LESS THAN 1.0E-07: SETTING SLOPE TO 1.0E-06 
 SLOPE FOR SEGMENT AND REACH      2    10 IS WITH  0.000E+00 LESS THAN 1.0E-07: SETTING SLOPE TO 1.0E-06 
 SLOPE FOR SEGMENT AND REACH      6     1 IS WITH  0.000E+00 LESS THAN 1.0E-07: SETTING SLOPE TO 1.0E-06 
 SLOPE FOR SEGMENT AND REACH      6     2 IS WITH  0.000E+00 LESS THAN 1.0E-07: SETTING SLOPE TO 1.0E-06 
 SLOPE FOR SEGMENT AND REACH      6     3 IS WITH  0.000E+00 LESS THAN 1.0E-07: SETTING SLOPE TO 1.0E-06 
 SLOPE FOR SEGMENT AND REACH      6     4 IS WITH  0.000E+00 LESS THAN 1.0E-07: SETTING SLOPE TO 1.0E-06 
 SLOPE FOR SEGMENT AND REACH      6     5 IS WITH  0.000E+00 LESS THAN 1.0E-07: SETTING SLOPE TO 1.0E-06 
 SLOPE FOR SEGMENT AND REACH      6     6 IS WITH  0.000E+00 LESS THAN 1.0E-07: SETTING SLOPE TO 1.0E-06 
 SLOPE FOR SEGMENT AND REACH      6     7 IS WITH  0.000E+00 LESS THAN 1.0E-07: SETTING SLOPE TO 1.0E-06 



 A total of  20 hydrographs have been added for SFR arrays.



            AREAL INFILTRATION RATE
 READING ON UNIT   17 WITH FORMAT: (FREE)              

            1           2           3           4           5           6           7           8           9          10
           11          12          13          14          15          16          17          18          19          20
 ........................................................................................................................
   1    0.000       0.000       0.000       0.000       0.000       0.000       0.000       0.000       0.000       0.000    
        0.000       0.000       0.000       0.000       0.000       0.000       0.000       0.000       0.000       0.000    
   2    0.000      1.0000E-05  1.0000E-05  1.0000E-05   0.000       0.000       0.000       0.000       0.000       0.000    
        0.000       0.000       0.000       0.000       0.000       0.000       0.000       0.000       0.000       0.000    
   3    0.000      1.0000E-05  1.0000E-05  1.0000E-05   0.000       0.000       0.000       0.000       0.000       0.000    
        0.000       0.000       0.000       0.000       0.000       0.000       0.000       0.000       0.000       0.000    
   4    0.000      1.0000E-05  1.0000E-05  1.0000E-05   0.000       0.000       0.000       0.000       0.000       0.000    
        0.000       0.000       0.000       0.000       0.000       0.000       0.000       0.000       0.000       0.000    
   5    0.000      1.0000E-05  1.0000E-05  1.0000E-05   0.000       0.000       0.000       0.000       0.000       0.000    
        0.000       0.000       0.000       0.000       0.000       0.000       0.000       0.000       0.000       0.000    
   6    0.000       0.000       0.000       0.000       0.000       0.000       0.000       0.000       0.000       0.000    
        0.000       0.000       0.000       0.000       0.000       0.000       0.000       0.000       0.000       0.000    
   7    0.000       0.000       0.000       0.000       0.000       0.000       0.000       0.000       0.000       0.000    
        0.000       0.000       0.000       0.000       0.000       0.000       0.000       0.000       0.000       0.000    
   8    0.000       0.000       0.000       0.000       0.000       0.000       0.000       0.000       0.000       0.000    
        0.000       0.000       0.000       0.000       0.000       0.000       0.000       0.000      1.0000E-05  1.0000E-05
   9    0.000       0.000       0.000       0.000       0.000       0.000       0.000       0.000       0.000       0.000    
        0.000       0.000       0.000       0.000       0.000       0.000       0.000       0.000      1.0000E-05  1.0000E-05
  10    0.000       0.000       0.000       0.000       0.000       0.000       0.000       0.000       0.000       0.000    
        0.000       0.000       0.000       0.000       0.000       0.000       0.000       0.000      1.0000E-05  1.0000E-05
  11    0.000       0.000       0.000       0.000       0.000       0.000       0.000       0.000       0.000       0.000    
        0.000       0.000       0.000       0.000       0.000       0.000       0.000       0.000      1.0000E-05  1.0000E-05
  12    0.000       0.000       0.000       0.000       0.000       0.000       0.000       0.000       0.000       0.000    
        0.000       0.000       0.000       0.000       0.000       0.000       0.000       0.000      1.0000E-05  1.0000E-05
  13    0.000       0.000       0.000       0.000       0.000       0.000       0.000       0.000       0.000       0.000    
        0.000       0.000       0.000       0.000       0.000      1.0000E-05  1.0000E-05  1.0000E-05  1.0000E-05  1.0000E-05
  14    0.000       0.000       0.000       0.000       0.000       0.000       0.000       0.000       0.000       0.000    
        0.000       0.000       0.000       0.000       0.000       0.000       0.000       0.000      1.0000E-05  1.0000E-05
  15    0.000       0.000       0.000       0.000       0.000       0.000       0.000       0.000       0.000       0.000    
        0.000       0.000       0.000       0.000       0.000       0.000       0.000       0.000      1.0000E-05  1.0000E-05
  16    0.000       0.000       0.000       0.000       0.000       0.000       0.000       0.000       0.000       0.000    
        0.000       0.000       0.000       0.000       0.000       0.000       0.000       0.000      1.0000E-05  1.0000E-05
  17    0.000       0.000       0.000       0.000       0.000       0.000       0.000       0.000       0.000       0.000    
        0.000       0.000       0.000       0.000       0.000       0.000       0.000       0.000      1.0000E-05  1.0000E-05
  18    0.000       0.000       0.000       0.000       0.000       0.000       0.000       0.000       0.000       0.000    
        0.000       0.000       0.000       0.000       0.000       0.000       0.000       0.000      1.0000E-05  1.0000E-05
  19    0.000       0.000       0.000       0.000       0.000       0.000       0.000       0.000       0.000       0.000    
        0.000       0.000       0.000       0.000       0.000       0.000       0.000       0.000       0.000       0.000    
  20    0.000       0.000       0.000       0.000       0.000       0.000       0.000       0.000       0.000       0.000    
        0.000       0.000       0.000       0.000       0.000       0.000       0.000       0.000       0.000       0.000    
  21    0.000       0.000       0.000       0.000       0.000       0.000       0.000       0.000       0.000       0.000    
        0.000       0.000       0.000       0.000       0.000       0.000       0.000       0.000       0.000       0.000    
  22    0.000       0.000       0.000       0.000       0.000       0.000       0.000       0.000       0.000       0.000    
        0.000       0.000       0.000       0.000       0.000       0.000       0.000       0.000       0.000       0.000    
  23    0.000       0.000       0.000       0.000       0.000       0.000       0.000       0.000       0.000       0.000    
        0.000       0.000       0.000       0.000       0.000       0.000       0.000       0.000       0.000       0.000    

             18 MNW WELLS
    No.   Lay   Row   Col    Stress   QW param      Rw       Skin    WL Limit    WL Refer   NonLinear Cp  QW Group  Cell-To-Well  Min-Qoff  Min-Qon  Site Identifier
      1     1     6     2  0.000     -1.000     0.1000      1.000      205.0      291.8      0.00000             1  690.162         0.000     0.000  NO-PRINT                        
      2     2     6     2  0.000     -1.000     0.1000      1.000      205.0      291.8      0.00000             2  71.6019         0.000     0.000  NO-PRINT                        
      3     3     6     2  0.000     -1.000     0.1000      1.000      205.0      291.8      0.00000             3  47.7346         0.000     0.000  NO-PRINT                        
      4     4     6     2  0.000     -1.000     0.1000      1.000      205.0      291.8      0.00000             4  7.16019         0.000     0.000  NO-PRINT                        
      5     1     8     2  0.000     -1.000     0.1000      1.000      205.0      292.0      0.00000             5  691.833         0.000     0.000  NO-PRINT                        
      6     2     8     2  0.000     -1.000     0.1000      1.000      205.0      292.0      0.00000             6  71.6019         0.000     0.000  NO-PRINT                        
      7     3     8     2  0.000     -1.000     0.1000      1.000      205.0      292.0      0.00000             7  47.7346         0.000     0.000  NO-PRINT                        
      8     4     8     2  0.000     -1.000     0.1000      1.000      205.0      292.0      0.00000             8  7.16019         0.000     0.000  NO-PRINT                        
      9     1    10     2  0.000     -1.000     0.1000      1.000      205.0      292.3      0.00000             9  694.618         0.000     0.000  NO-PRINT                        
     10     2    10     2  0.000     -1.000     0.1000      1.000      205.0      292.3      0.00000            10  71.6019         0.000     0.000  NO-PRINT                        
     11     3    10     2  0.000     -1.000     0.1000      1.000      205.0      292.3      0.00000            11  47.7346         0.000     0.000  NO-PRINT                        
     12     4    10     2  0.000     -1.000     0.1000      1.000      205.0      292.3      0.00000            12  7.16019         0.000     0.000  NO-PRINT                        
     13     2     3    19  0.000     -1.000     0.1000      1.000      205.0      280.3      0.00000            13  71.6019         0.000     0.000  NO-PRINT                        
     14     3     3    19  0.000     -1.000     0.1000      1.000      205.0      280.3      0.00000            14  47.7346         0.000     0.000  NO-PRINT                        
     15     4     3    19  0.000     -1.000     0.1000      1.000      205.0      280.3      0.00000            15  7.16019         0.000     0.000  NO-PRINT                        
     16     2     6    17  0.000     -1.000     0.1000      1.000      205.0      281.8      0.00000            16  71.6019         0.000     0.000  NO-PRINT                        
     17     3     6    17  0.000     -1.000     0.1000      1.000      205.0      281.8      0.00000            17  47.7346         0.000     0.000  NO-PRINT                        
     18     4     6    17  0.000     -1.000     0.1000      1.000      205.0      281.8      0.00000            18  7.16019         0.000     0.000  NO-PRINT                        

 Parameter:  WELLS1
 WELL NO. LAYER    ROW    COL  F-WELL ID    FARM ID         QMAX         QMAXRESET       
 ----------------------------------------------------------------------------------------
       1      1      5      6          1          1      5.0000E+03      0.0000E+00
       2      1      8      6          2          1      5.0000E+03      0.0000E+00
       3      1      8      9          3          1      5.0000E+03      0.0000E+00
       4      1      5      9          4          2      3.0000E+03      0.0000E+00
       5      1      6     10          5          2      2.0000E+03      0.0000E+00
       6      1      7     11          6          2      1.0000E+03      0.0000E+00
       7      1     18      3          7          3      2.0000E+03      0.0000E+00
       8      1     21      3          8          3      4.0000E+03      0.0000E+00
       9      1     18     19          9          4      3.0000E+03      0.0000E+00
      10      1     21     19         10          4      5.0000E+03      0.0000E+00
      11      0      6      2        -11          5      5.0000E+03      1.0000E+00
      12      0      8      2        -12          5      5.0000E+03      1.0000E+00
      13      0     10      2        -13          5      5.0000E+03      1.0000E+00
      14      0      3     19        -14          6      1.0000E+04      1.0000E+00
      15      0      6     17        -15          6      6.0000E+03      1.0000E+00

 NUMBER OF ACTIVE FARM WELLS:       15

 FARM-ID  NUMBER OF WELLS PER FARM  TOTAL MAX.CAPACITY PER FARM
       1                         3                   15000.0000
       2                         3                    6000.0000
       3                         2                    6000.0000
       4                         2                    8000.0000
       5                         3                   15000.0000
       6                         2                   16000.0000
       7                         0                       0.0000
       8                         0                       0.0000
 Reading list on unit  20
 LIST SCALING FACTOR= 0.60000    
 (THE SCALE FACTOR WAS APPLIED TO FIELDS 2 - 7)
 Reading list on unit  30
 Reading list on unit  40

  REF. EVAPOTRANSPIRATION =  9.100000E-04
 Reading list on unit  50

Transpiratory and Evaporative Fractions of Crop Consumptive Use
    % Transpiration % Evap. for Precip. % Evap. for Irrig.
    1          0.000          1.000          0.500
    2          0.822          0.178          0.158
    3          0.957          0.043          0.043
    4          0.125          0.875          0.875
    5          0.777          0.223          0.000
    6          0.200          0.800          0.000
 Reading list on unit  60

FRACTIONS OF IN-EFFICIENT LOSSES TO SW-RUNOFF FROM 
     PRECIPITATION:  IRRIGATION:
    1          0.500          0.600
    2          0.400          0.300
    3          0.600          0.500
    4          0.700          0.600
    5          0.840          0.000
    6          0.740          0.000

       PRECIPITATION FLUX =  2.070000E-03

 OPENING FILE ON UNIT  99:
 NRDV.IN                                                                                                                                                                                                                                                                                                                                                                                                                                                                                                             
 READING SCALE FACTOR LIST ON UNIT  80
 FIELD     SCALE FACTOR
     1       1.0000    
     2       1.0000    
     3       1.0000    
     4       1.0000    

UNRANKED LIST OF NON-ROUTED DELIVERIES TO FARMS [L3]:
TYPE:             1

FARM-ID  VOLUME:
      1   1.500E+04
      2   1.500E+04
      3   2.000E+04
      4   1.000E+04
      5   1.000E+04
      6   2.000E+04
      7   0.000E+00
      8   0.000E+00

FARM-ID  PRIORITY RANK OF NRD-TYPE:
      1           1
      2           1
      3           1
      4           1
      5           1
      6           1
      7           1
      8           1

FARM-ID  USE-FLAG:
         0 = SUFFICIENT USE
         1 = ABSOLUTE USE (RECHARGE SURPLUS BACK INTO CANAL)
         2 = ABSOLUTE USE (INJECT SURPLUS INTO FARM-WELLS)
      1           0
      2           0
      3           0
      4           0
      5           0
      6           0
      7           0
      8           0

LIST OF NON-ROUTED DELIVERIES IN RANKED SEQUENCE [L3/T]:

FARM-ID  RATE:
      1   4.931E+02
      2   4.931E+02
      3   6.575E+02
      4   3.287E+02
      5   3.287E+02
      6   6.575E+02
      7   0.000E+00
      8   0.000E+00

FARM-ID  USE-FLAG:
         0 = SUFFICIENT USE
         1 = ABSOLUTE USE (RECHARGE SURPLUS BACK INTO CANAL)
         2 = ABSOLUTE USE (INJECT SURPLUS INTO FARM-WELLS)
      1           0
      2           0
      3           0
      4           0
      5           0
      6           0
      7           0
      8           0

FARM ALLOTMENT HEIGHT [L]:   0.000
 
 SOLVING FOR HEAD 
 TIMESTEP FLAG ... =           0           1           1           1
 TIMESTEP FLAG ... =           1           1           1           2
 TIMESTEP FLAG ... =           2           1           1           3
 TIMESTEP FLAG ... =           3           1           1           4
 TIMESTEP FLAG ... =           4           1           1           5


     5 CALLS TO PCG ROUTINE FOR TIME STEP   1 IN STRESS PERIOD    1
    22 TOTAL ITERATIONS

 OUTPUT CONTROL FOR STRESS PERIOD    1   TIME STEP   1
    SAVE BUDGET
 UBDSV1 SAVING "         STORAGE" ON UNIT  70 AT TIME STEP  1, STRESS PERIOD   1
 UBDSV2 SAVING "   CONSTANT HEAD" ON UNIT  70 AT TIME STEP  1, STRESS PERIOD   1
 UBDSV1 SAVING "FLOW RIGHT FACE " ON UNIT  70 AT TIME STEP  1, STRESS PERIOD   1
 UBDSV1 SAVING "FLOW FRONT FACE " ON UNIT  70 AT TIME STEP  1, STRESS PERIOD   1
 UBDSV1 SAVING "FLOW LOWER FACE " ON UNIT  70 AT TIME STEP  1, STRESS PERIOD   1
 UBDSV4 SAVING " HEAD DEP BOUNDS" ON UNIT  70 AT TIME STEP  1, STRESS PERIOD   1
 UBUDSV SAVING "    UZF INFILTR." ON UNIT 61 AT TIME STEP  1, STRESS PERIOD    1
 UBUDSV SAVING "    UZF RECHARGE" ON UNIT 61 AT TIME STEP  1, STRESS PERIOD    1
 UBDSV3 SAVING "    UZF RECHARGE" ON UNIT  70 AT TIME STEP  1, STRESS PERIOD   1
 UBUDSV SAVING " SURFACE LEAKAGE" ON UNIT 61 AT TIME STEP  1, STRESS PERIOD    1
 UBDSV3 SAVING " SURFACE LEAKAGE" ON UNIT  70 AT TIME STEP  1, STRESS PERIOD   1
 UBDSV2 SAVING "  STREAM LEAKAGE" ON UNIT  70 AT TIME STEP  1, STRESS PERIOD   1



 UBDSV4 SAVING "             MNW" ON UNIT  70 AT TIME STEP  1, STRESS PERIOD   1
 UBDSV4 SAVING "      FARM WELLS" ON UNIT  70 AT TIME STEP  1, STRESS PERIOD   1
 UBDSV3 SAVING "FARM  NET  RECH." ON UNIT  70 AT TIME STEP  1, STRESS PERIOD   1
 A TOTAL OF  24 HYDROGRAPH POINTS HAVE BEEN PREPARED.
 
 SOLVING FOR HEAD 
 TIMESTEP FLAG ... =           5           1           2           1
 TIMESTEP FLAG ... =           6           1           2           2
 TIMESTEP FLAG ... =           7           1           2           3
 TIMESTEP FLAG ... =           8           1           2           4
     4 CALLS TO PCG ROUTINE FOR TIME STEP   2 IN STRESS PERIOD    1
    12 TOTAL ITERATIONS

 OUTPUT CONTROL FOR STRESS PERIOD    1   TIME STEP   2
    SAVE BUDGET
 UBDSV1 SAVING "         STORAGE" ON UNIT  70 AT TIME STEP  2, STRESS PERIOD   1
 UBDSV2 SAVING "   CONSTANT HEAD" ON UNIT  70 AT TIME STEP  2, STRESS PERIOD   1
 UBDSV1 SAVING "FLOW RIGHT FACE " ON UNIT  70 AT TIME STEP  2, STRESS PERIOD   1
 UBDSV1 SAVING "FLOW FRONT FACE " ON UNIT  70 AT TIME STEP  2, STRESS PERIOD   1
 UBDSV1 SAVING "FLOW LOWER FACE " ON UNIT  70 AT TIME STEP  2, STRESS PERIOD   1
 UBDSV4 SAVING " HEAD DEP BOUNDS" ON UNIT  70 AT TIME STEP  2, STRESS PERIOD   1
 UBUDSV SAVING "    UZF INFILTR." ON UNIT 61 AT TIME STEP  2, STRESS PERIOD    1
 UBUDSV SAVING "    UZF RECHARGE" ON UNIT 61 AT TIME STEP  2, STRESS PERIOD    1
 UBDSV3 SAVING "    UZF RECHARGE" ON UNIT  70 AT TIME STEP  2, STRESS PERIOD   1
 UBUDSV SAVING " SURFACE LEAKAGE" ON UNIT 61 AT TIME STEP  2, STRESS PERIOD    1
 UBDSV3 SAVING " SURFACE LEAKAGE" ON UNIT  70 AT TIME STEP  2, STRESS PERIOD   1


UNSATURATED ZONE PACKAGE VOLUMETRIC BUDGET FOR  TIME STEP    2 STRESS PERIOD    1
  ------------------------------------------------------------------------------



     CUMULATIVE VOLUMES      L**3       RATES FOR THIS TIME STEP      L**3/T
     ------------------                 ------------------------

           IN:                                      IN:
           ---                                      ---
        INFILTRATION =      107655.5842          INFILTRATION =        3533.7496

          OUT:                                     OUT:
          ----                                     ----
              UZF ET =       0.0000E+00                UZF ET =       0.0000E+00
        UZF RECHARGE =       29126.7440          UZF RECHARGE =        1109.5070

            IN - OUT =       78528.8403              IN - OUT =        2424.2426

          STORAGE:                                 STORAGE:
          --------                                 --------
      STORAGE CHANGE =       78528.8157        STORAGE CHANGE =        2424.2426

 PERCENT DISCREPANCY IS DIFFERENCE BETWEEN IN-OUT MINUS CHANGE IN STORAGE
 DIVIDED BY THE AVERAGE OF IN AND OUT TIMES 100

 PERCENT DISCREPANCY =           0.00     PERCENT DISCREPANCY =           0.00






 UBDSV2 SAVING "  STREAM LEAKAGE" ON UNIT  70 AT TIME STEP  2, STRESS PERIOD   1



 UBDSV4 SAVING "             MNW" ON UNIT  70 AT TIME STEP  2, STRESS PERIOD   1
 UBDSV4 SAVING "      FARM WELLS" ON UNIT  70 AT TIME STEP  2, STRESS PERIOD   1
 UBDSV3 SAVING "FARM  NET  RECH." ON UNIT  70 AT TIME STEP  2, STRESS PERIOD   1
1
  VOLUMETRIC BUDGET FOR ENTIRE MODEL AT END OF TIME STEP  2 IN STRESS PERIOD   1
  ------------------------------------------------------------------------------

     CUMULATIVE VOLUMES      L**3       RATES FOR THIS TIME STEP      L**3/T
     ------------------                 ------------------------

           IN:                                      IN:
           ---                                      ---
             STORAGE =       10603.4238               STORAGE =         119.2253
       CONSTANT HEAD =           0.0000         CONSTANT HEAD =           0.0000
     HEAD DEP BOUNDS =      119696.7344       HEAD DEP BOUNDS =        3930.4563
        UZF RECHARGE =       29126.7422          UZF RECHARGE =        1109.5068
               GW ET =           0.0000                 GW ET =           0.0000
     SURFACE LEAKAGE =           0.0000       SURFACE LEAKAGE =           0.0000
      STREAM LEAKAGE =      242618.3438        STREAM LEAKAGE =        7856.3760
                 MNW =        3943.6284                   MNW =         126.0115
          FARM WELLS =           0.0000            FARM WELLS =           0.0000
    FARM  NET  RECH. =      788173.2500      FARM  NET  RECH. =       25830.2578

            TOTAL IN =     1194162.1250              TOTAL IN =       38971.8359

          OUT:                                     OUT:
          ----                                     ----
             STORAGE =      258338.7188               STORAGE =        7614.3701
       CONSTANT HEAD =           0.0000         CONSTANT HEAD =           0.0000
     HEAD DEP BOUNDS =      581516.6250       HEAD DEP BOUNDS =       19125.1426
        UZF RECHARGE =           0.0000          UZF RECHARGE =           0.0000
               GW ET =           0.0000                 GW ET =           0.0000
     SURFACE LEAKAGE =         959.0167       SURFACE LEAKAGE =          32.4237
      STREAM LEAKAGE =      330339.7500        STREAM LEAKAGE =       11415.6230
                 MNW =        3943.6284                   MNW =         126.0115
          FARM WELLS =           0.0000            FARM WELLS =           0.0000
    FARM  NET  RECH. =       19064.2344      FARM  NET  RECH. =         658.9030

           TOTAL OUT =     1194162.0000             TOTAL OUT =       38972.4727

            IN - OUT =           0.1250              IN - OUT =          -0.6367

 PERCENT DISCREPANCY =           0.00     PERCENT DISCREPANCY =           0.00






          TIME SUMMARY AT END OF TIME STEP   2 IN STRESS PERIOD    1
                    SECONDS     MINUTES      HOURS       DAYS        YEARS
                    -----------------------------------------------------------
   TIME STEP LENGTH 1.31414E+06  21902.      365.04      15.210     4.16427E-02
 STRESS PERIOD TIME 2.62829E+06  43805.      730.08      30.420     8.32854E-02
         TOTAL TIME 2.62829E+06  43805.      730.08      30.420     8.32854E-02
1
1
                            STRESS PERIOD NO.    2, LENGTH =   30.42000    
                            -----------------------------------------------

                              NUMBER OF TIME STEPS =     2

                               MULTIPLIER FOR DELT =     1.000

                            INITIAL TIME STEP SIZE =   15.21000    

 REUSING NON-PARAMETER GHB CELLS FROM LAST STRESS PERIOD

     92 GHB CELLS

 REUSING STREAM SEGMENT DATA FROM LAST STRESS PERIOD
 USING INFILTRATION RATE FROM PREVIOUS STRESS 
 PERIOD.CURRENT PERIOD IS:            2

 REUSING MNW7  FROM LAST STRESS PERIOD

 Parameter:  WELLS1
 WELL NO. LAYER    ROW    COL  F-WELL ID    FARM ID         QMAX         QMAXRESET       
 ----------------------------------------------------------------------------------------
       1      1      5      6          1          1      5.0000E+03      0.0000E+00
       2      1      8      6          2          1      5.0000E+03      0.0000E+00
       3      1      8      9          3          1      5.0000E+03      0.0000E+00
       4      1      5      9          4          2      3.0000E+03      0.0000E+00
       5      1      6     10          5          2      2.0000E+03      0.0000E+00
       6      1      7     11          6          2      1.0000E+03      0.0000E+00
       7      1     18      3          7          3      2.0000E+03      0.0000E+00
       8      1     21      3          8          3      4.0000E+03      0.0000E+00
       9      1     18     19          9          4      3.0000E+03      0.0000E+00
      10      1     21     19         10          4      5.0000E+03      0.0000E+00
      11      0      6      2        -11          5      5.0000E+03      1.0000E+00
      12      0      8      2        -12          5      5.0000E+03      1.0000E+00
      13      0     10      2        -13          5      5.0000E+03      1.0000E+00
      14      0      3     19        -14          6      1.0000E+04      1.0000E+00
      15      0      6     17        -15          6      6.0000E+03      1.0000E+00

 NUMBER OF ACTIVE FARM WELLS:       15

 FARM-ID  NUMBER OF WELLS PER FARM  TOTAL MAX.CAPACITY PER FARM
       1                         3                   15000.0000
       2                         3                    6000.0000
       3                         2                    6000.0000
       4                         2                    8000.0000
       5                         3                   15000.0000
       6                         2                   16000.0000
       7                         0                       0.0000
       8                         0                       0.0000
 Reading list on unit  20
 LIST SCALING FACTOR= 0.65000    
 (THE SCALE FACTOR WAS APPLIED TO FIELDS 2 - 7)
 Reading list on unit  30
 Reading list on unit  40

  REF. EVAPOTRANSPIRATION =  1.500000E-03
 Reading list on unit  50

Transpiratory and Evaporative Fractions of Crop Consumptive Use
    % Transpiration % Evap. for Precip. % Evap. for Irrig.
    1          0.000          1.000          0.500
    2          0.822          0.178          0.158
    3          0.845          0.155          0.155
    4          0.125          0.875          0.875
    5          0.783          0.217          0.000
    6          0.400          0.600          0.000
 Reading list on unit  60

FRACTIONS OF IN-EFFICIENT LOSSES TO SW-RUNOFF FROM 
     PRECIPITATION:  IRRIGATION:
    1          0.500          0.600
    2          0.400          0.300
    3          0.600          0.500
    4          0.700          0.600
    5          0.850          0.000
    6          0.750          0.000

       PRECIPITATION FLUX =  2.630000E-03

 OPENING FILE ON UNIT  99:
 NRDV.IN                                                                                                                                                                                                                                                                                                                                                                                                                                                                                                             
 READING SCALE FACTOR LIST ON UNIT  80
 FIELD     SCALE FACTOR
     1       1.0000    
     2       2.0000    
     3       1.0000    
     4       1.0000    

UNRANKED LIST OF NON-ROUTED DELIVERIES TO FARMS [L3]:
TYPE:             1

FARM-ID  VOLUME:
      1   3.000E+04
      2   3.000E+04
      3   4.000E+04
      4   2.000E+04
      5   2.000E+04
      6   4.000E+04
      7   0.000E+00
      8   0.000E+00

FARM-ID  PRIORITY RANK OF NRD-TYPE:
      1           1
      2           1
      3           1
      4           1
      5           1
      6           1
      7           1
      8           1

FARM-ID  USE-FLAG:
         0 = SUFFICIENT USE
         1 = ABSOLUTE USE (RECHARGE SURPLUS BACK INTO CANAL)
         2 = ABSOLUTE USE (INJECT SURPLUS INTO FARM-WELLS)
      1           0
      2           0
      3           0
      4           0
      5           0
      6           0
      7           0
      8           0

LIST OF NON-ROUTED DELIVERIES IN RANKED SEQUENCE [L3/T]:

FARM-ID  RATE:
      1   9.862E+02
      2   9.862E+02
      3   1.315E+03
      4   6.575E+02
      5   6.575E+02
      6   1.315E+03
      7   0.000E+00
      8   0.000E+00

FARM-ID  USE-FLAG:
         0 = SUFFICIENT USE
         1 = ABSOLUTE USE (RECHARGE SURPLUS BACK INTO CANAL)
         2 = ABSOLUTE USE (INJECT SURPLUS INTO FARM-WELLS)
      1           0
      2           0
      3           0
      4           0
      5           0
      6           0
      7           0
      8           0

FARM ALLOTMENT HEIGHT [L]:   0.000
 
 SOLVING FOR HEAD 
 TIMESTEP FLAG ... =           0           2           1           1
 TIMESTEP FLAG ... =           1           2           1           2
 TIMESTEP FLAG ... =           2           2           1           3
 TIMESTEP FLAG ... =           3           2           1           4
 TIMESTEP FLAG ... =           4           2           1           5
 TIMESTEP FLAG ... =           5           2           1           6


     6 CALLS TO PCG ROUTINE FOR TIME STEP   1 IN STRESS PERIOD    2
    24 TOTAL ITERATIONS

 OUTPUT CONTROL FOR STRESS PERIOD    2   TIME STEP   1
    SAVE BUDGET
 UBDSV1 SAVING "         STORAGE" ON UNIT  70 AT TIME STEP  1, STRESS PERIOD   2
 UBDSV2 SAVING "   CONSTANT HEAD" ON UNIT  70 AT TIME STEP  1, STRESS PERIOD   2
 UBDSV1 SAVING "FLOW RIGHT FACE " ON UNIT  70 AT TIME STEP  1, STRESS PERIOD   2
 UBDSV1 SAVING "FLOW FRONT FACE " ON UNIT  70 AT TIME STEP  1, STRESS PERIOD   2
 UBDSV1 SAVING "FLOW LOWER FACE " ON UNIT  70 AT TIME STEP  1, STRESS PERIOD   2
 UBDSV4 SAVING " HEAD DEP BOUNDS" ON UNIT  70 AT TIME STEP  1, STRESS PERIOD   2
 UBUDSV SAVING "    UZF INFILTR." ON UNIT 61 AT TIME STEP  1, STRESS PERIOD    2
 UBUDSV SAVING "    UZF RECHARGE" ON UNIT 61 AT TIME STEP  1, STRESS PERIOD    2
 UBDSV3 SAVING "    UZF RECHARGE" ON UNIT  70 AT TIME STEP  1, STRESS PERIOD   2
 UBUDSV SAVING " SURFACE LEAKAGE" ON UNIT 61 AT TIME STEP  1, STRESS PERIOD    2
 UBDSV3 SAVING " SURFACE LEAKAGE" ON UNIT  70 AT TIME STEP  1, STRESS PERIOD   2
 UBDSV2 SAVING "  STREAM LEAKAGE" ON UNIT  70 AT TIME STEP  1, STRESS PERIOD   2



 UBDSV4 SAVING "             MNW" ON UNIT  70 AT TIME STEP  1, STRESS PERIOD   2
 UBDSV4 SAVING "      FARM WELLS" ON UNIT  70 AT TIME STEP  1, STRESS PERIOD   2
 UBDSV3 SAVING "FARM  NET  RECH." ON UNIT  70 AT TIME STEP  1, STRESS PERIOD   2
 
 SOLVING FOR HEAD 
 TIMESTEP FLAG ... =           6           2           2           1
 TIMESTEP FLAG ... =           7           2           2           2
 TIMESTEP FLAG ... =           8           2           2           3
     3 CALLS TO PCG ROUTINE FOR TIME STEP   2 IN STRESS PERIOD    2
     9 TOTAL ITERATIONS

 OUTPUT CONTROL FOR STRESS PERIOD    2   TIME STEP   2
    SAVE BUDGET
 UBDSV1 SAVING "         STORAGE" ON UNIT  70 AT TIME STEP  2, STRESS PERIOD   2
 UBDSV2 SAVING "   CONSTANT HEAD" ON UNIT  70 AT TIME STEP  2, STRESS PERIOD   2
 UBDSV1 SAVING "FLOW RIGHT FACE " ON UNIT  70 AT TIME STEP  2, STRESS PERIOD   2
 UBDSV1 SAVING "FLOW FRONT FACE " ON UNIT  70 AT TIME STEP  2, STRESS PERIOD   2
 UBDSV1 SAVING "FLOW LOWER FACE " ON UNIT  70 AT TIME STEP  2, STRESS PERIOD   2
 UBDSV4 SAVING " HEAD DEP BOUNDS" ON UNIT  70 AT TIME STEP  2, STRESS PERIOD   2
 UBUDSV SAVING "    UZF INFILTR." ON UNIT 61 AT TIME STEP  2, STRESS PERIOD    2
 UBUDSV SAVING "    UZF RECHARGE" ON UNIT 61 AT TIME STEP  2, STRESS PERIOD    2
 UBDSV3 SAVING "    UZF RECHARGE" ON UNIT  70 AT TIME STEP  2, STRESS PERIOD   2
 UBUDSV SAVING " SURFACE LEAKAGE" ON UNIT 61 AT TIME STEP  2, STRESS PERIOD    2
 UBDSV3 SAVING " SURFACE LEAKAGE" ON UNIT  70 AT TIME STEP  2, STRESS PERIOD   2


UNSATURATED ZONE PACKAGE VOLUMETRIC BUDGET FOR  TIME STEP    2 STRESS PERIOD    2
  ------------------------------------------------------------------------------



     CUMULATIVE VOLUMES      L**3       RATES FOR THIS TIME STEP      L**3/T
     ------------------                 ------------------------

           IN:                                      IN:
           ---                                      ---
        INFILTRATION =      230594.4925          INFILTRATION =        4013.5956

          OUT:                                     OUT:
          ----                                     ----
              UZF ET =       0.0000E+00                UZF ET =       0.0000E+00
        UZF RECHARGE =       67902.6105          UZF RECHARGE =        1247.5016

            IN - OUT =      162691.8820              IN - OUT =        2766.0940

          STORAGE:                                 STORAGE:
          --------                                 --------
      STORAGE CHANGE =      162691.8575        STORAGE CHANGE =        2766.0940

 PERCENT DISCREPANCY IS DIFFERENCE BETWEEN IN-OUT MINUS CHANGE IN STORAGE
 DIVIDED BY THE AVERAGE OF IN AND OUT TIMES 100

 PERCENT DISCREPANCY =           0.00     PERCENT DISCREPANCY =           0.00






 UBDSV2 SAVING "  STREAM LEAKAGE" ON UNIT  70 AT TIME STEP  2, STRESS PERIOD   2



 UBDSV4 SAVING "             MNW" ON UNIT  70 AT TIME STEP  2, STRESS PERIOD   2
 UBDSV4 SAVING "      FARM WELLS" ON UNIT  70 AT TIME STEP  2, STRESS PERIOD   2
 UBDSV3 SAVING "FARM  NET  RECH." ON UNIT  70 AT TIME STEP  2, STRESS PERIOD   2
1
  VOLUMETRIC BUDGET FOR ENTIRE MODEL AT END OF TIME STEP  2 IN STRESS PERIOD   2
  ------------------------------------------------------------------------------

     CUMULATIVE VOLUMES      L**3       RATES FOR THIS TIME STEP      L**3/T
     ------------------                 ------------------------

           IN:                                      IN:
           ---                                      ---
             STORAGE =       17246.5801               STORAGE =          83.8523
       CONSTANT HEAD =           0.0000         CONSTANT HEAD =           0.0000
     HEAD DEP BOUNDS =      238006.8438       HEAD DEP BOUNDS =        3873.1699
        UZF RECHARGE =       67902.6094          UZF RECHARGE =        1247.5016
               GW ET =           0.0000                 GW ET =           0.0000
     SURFACE LEAKAGE =           0.0000       SURFACE LEAKAGE =           0.0000
      STREAM LEAKAGE =      481857.7812        STREAM LEAKAGE =        7797.1816
                 MNW =        7704.5742                   MNW =         123.3839
          FARM WELLS =           0.0000            FARM WELLS =           0.0000
    FARM  NET  RECH. =     1685997.5000      FARM  NET  RECH. =       29495.2559

            TOTAL IN =     2498716.0000              TOTAL IN =       42620.3438

          OUT:                                     OUT:
          ----                                     ----
             STORAGE =      494131.3750               STORAGE =        7036.2227
       CONSTANT HEAD =           0.0000         CONSTANT HEAD =           0.0000
     HEAD DEP BOUNDS =     1164319.0000       HEAD DEP BOUNDS =       19167.8125
        UZF RECHARGE =           0.0000          UZF RECHARGE =           0.0000
               GW ET =           0.0000                 GW ET =           0.0000
     SURFACE LEAKAGE =        2185.4419       SURFACE LEAKAGE =          42.1322
      STREAM LEAKAGE =      708478.4375        STREAM LEAKAGE =       12813.3301
                 MNW =        7704.5742                   MNW =         123.3839
          FARM WELLS =           0.0000            FARM WELLS =           0.0000
    FARM  NET  RECH. =      121865.1094      FARM  NET  RECH. =        3435.9963

           TOTAL OUT =     2498683.7500             TOTAL OUT =       42618.8789

            IN - OUT =          32.2500              IN - OUT =           1.4648

 PERCENT DISCREPANCY =           0.00     PERCENT DISCREPANCY =           0.00






          TIME SUMMARY AT END OF TIME STEP   2 IN STRESS PERIOD    2
                    SECONDS     MINUTES      HOURS       DAYS        YEARS
                    -----------------------------------------------------------
   TIME STEP LENGTH 1.31414E+06  21902.      365.04      15.210     4.16427E-02
 STRESS PERIOD TIME 2.62829E+06  43805.      730.08      30.420     8.32854E-02
         TOTAL TIME 5.25658E+06  87610.      1460.2      60.840     0.16657    
1
1
                            STRESS PERIOD NO.    3, LENGTH =   30.42000    
                            -----------------------------------------------

                              NUMBER OF TIME STEPS =     2

                               MULTIPLIER FOR DELT =     1.000

                            INITIAL TIME STEP SIZE =   15.21000    

 REUSING NON-PARAMETER GHB CELLS FROM LAST STRESS PERIOD

     92 GHB CELLS

 REUSING STREAM SEGMENT DATA FROM LAST STRESS PERIOD
 USING INFILTRATION RATE FROM PREVIOUS STRESS 
 PERIOD.CURRENT PERIOD IS:            3

 REUSING MNW7  FROM LAST STRESS PERIOD

 Parameter:  WELLS1
 WELL NO. LAYER    ROW    COL  F-WELL ID    FARM ID         QMAX         QMAXRESET       
 ----------------------------------------------------------------------------------------
       1      1      5      6          1          1      5.0000E+03      0.0000E+00
       2      1      8      6          2          1      5.0000E+03      0.0000E+00
       3      1      8      9          3          1      5.0000E+03      0.0000E+00
       4      1      5      9          4          2      3.0000E+03      0.0000E+00
       5      1      6     10          5          2      2.0000E+03      0.0000E+00
       6      1      7     11          6          2      1.0000E+03      0.0000E+00
       7      1     18      3          7          3      2.0000E+03      0.0000E+00
       8      1     21      3          8          3      4.0000E+03      0.0000E+00
       9      1     18     19          9          4      3.0000E+03      0.0000E+00
      10      1     21     19         10          4      5.0000E+03      0.0000E+00
      11      0      6      2        -11          5      5.0000E+03      1.0000E+00
      12      0      8      2        -12          5      5.0000E+03      1.0000E+00
      13      0     10      2        -13          5      5.0000E+03      1.0000E+00
      14      0      3     19        -14          6      1.0000E+04      1.0000E+00
      15      0      6     17        -15          6      6.0000E+03      1.0000E+00

 NUMBER OF ACTIVE FARM WELLS:       15

 FARM-ID  NUMBER OF WELLS PER FARM  TOTAL MAX.CAPACITY PER FARM
       1                         3                   15000.0000
       2                         3                    6000.0000
       3                         2                    6000.0000
       4                         2                    8000.0000
       5                         3                   15000.0000
       6                         2                   16000.0000
       7                         0                       0.0000
       8                         0                       0.0000
 Reading list on unit  20
 LIST SCALING FACTOR= 0.70000    
 (THE SCALE FACTOR WAS APPLIED TO FIELDS 2 - 7)
 Reading list on unit  30
 Reading list on unit  40

  REF. EVAPOTRANSPIRATION =  2.890000E-03
 Reading list on unit  50

Transpiratory and Evaporative Fractions of Crop Consumptive Use
    % Transpiration % Evap. for Precip. % Evap. for Irrig.
    1          0.221          0.779          0.500
    2          0.860          0.140          0.140
    3          0.000          1.000          1.000
    4          0.125          0.875          0.875
    5          0.835          0.165          0.000
    6          0.600          0.400          0.000
 Reading list on unit  60

FRACTIONS OF IN-EFFICIENT LOSSES TO SW-RUNOFF FROM 
     PRECIPITATION:  IRRIGATION:
    1          0.500          0.600
    2          0.400          0.300
    3          0.600          0.500
    4          0.700          0.600
    5          0.500          0.000
    6          0.300          0.000

       PRECIPITATION FLUX =  1.840000E-03

 OPENING FILE ON UNIT  99:
 NRDV.IN                                                                                                                                                                                                                                                                                                                                                                                                                                                                                                             
 READING SCALE FACTOR LIST ON UNIT  80
 FIELD     SCALE FACTOR
     1       1.0000    
     2       3.0000    
     3       1.0000    
     4       1.0000    

UNRANKED LIST OF NON-ROUTED DELIVERIES TO FARMS [L3]:
TYPE:             1

FARM-ID  VOLUME:
      1   4.500E+04
      2   4.500E+04
      3   6.000E+04
      4   3.000E+04
      5   3.000E+04
      6   6.000E+04
      7   0.000E+00
      8   0.000E+00

FARM-ID  PRIORITY RANK OF NRD-TYPE:
      1           1
      2           1
      3           1
      4           1
      5           1
      6           1
      7           1
      8           1

FARM-ID  USE-FLAG:
         0 = SUFFICIENT USE
         1 = ABSOLUTE USE (RECHARGE SURPLUS BACK INTO CANAL)
         2 = ABSOLUTE USE (INJECT SURPLUS INTO FARM-WELLS)
      1           0
      2           0
      3           0
      4           0
      5           0
      6           0
      7           0
      8           0

LIST OF NON-ROUTED DELIVERIES IN RANKED SEQUENCE [L3/T]:

FARM-ID  RATE:
      1   1.479E+03
      2   1.479E+03
      3   1.972E+03
      4   9.862E+02
      5   9.862E+02
      6   1.972E+03
      7   0.000E+00
      8   0.000E+00

FARM-ID  USE-FLAG:
         0 = SUFFICIENT USE
         1 = ABSOLUTE USE (RECHARGE SURPLUS BACK INTO CANAL)
         2 = ABSOLUTE USE (INJECT SURPLUS INTO FARM-WELLS)
      1           0
      2           0
      3           0
      4           0
      5           0
      6           0
      7           0
      8           0

FARM ALLOTMENT HEIGHT [L]:   0.050
 
 SOLVING FOR HEAD 
 TIMESTEP FLAG ... =           0           3           1           1
 TIMESTEP FLAG ... =           1           3           1           2
 TIMESTEP FLAG ... =           2           3           1           3
 TIMESTEP FLAG ... =           3           3           1           4
 TIMESTEP FLAG ... =           4           3           1           5
 TIMESTEP FLAG ... =           5           3           1           6
 TIMESTEP FLAG ... =           6           3           1           7
 TIMESTEP FLAG ... =           7           3           1           8
 TIMESTEP FLAG ... =           8           3           1           9


     9 CALLS TO PCG ROUTINE FOR TIME STEP   1 IN STRESS PERIOD    3
    33 TOTAL ITERATIONS

 OUTPUT CONTROL FOR STRESS PERIOD    3   TIME STEP   1
    SAVE BUDGET
 UBDSV1 SAVING "         STORAGE" ON UNIT  70 AT TIME STEP  1, STRESS PERIOD   3
 UBDSV2 SAVING "   CONSTANT HEAD" ON UNIT  70 AT TIME STEP  1, STRESS PERIOD   3
 UBDSV1 SAVING "FLOW RIGHT FACE " ON UNIT  70 AT TIME STEP  1, STRESS PERIOD   3
 UBDSV1 SAVING "FLOW FRONT FACE " ON UNIT  70 AT TIME STEP  1, STRESS PERIOD   3
 UBDSV1 SAVING "FLOW LOWER FACE " ON UNIT  70 AT TIME STEP  1, STRESS PERIOD   3
 UBDSV4 SAVING " HEAD DEP BOUNDS" ON UNIT  70 AT TIME STEP  1, STRESS PERIOD   3
 UBUDSV SAVING "    UZF INFILTR." ON UNIT 61 AT TIME STEP  1, STRESS PERIOD    3
 UBUDSV SAVING "    UZF RECHARGE" ON UNIT 61 AT TIME STEP  1, STRESS PERIOD    3
 UBDSV3 SAVING "    UZF RECHARGE" ON UNIT  70 AT TIME STEP  1, STRESS PERIOD   3
 UBUDSV SAVING " SURFACE LEAKAGE" ON UNIT 61 AT TIME STEP  1, STRESS PERIOD    3
 UBDSV3 SAVING " SURFACE LEAKAGE" ON UNIT  70 AT TIME STEP  1, STRESS PERIOD   3
 UBDSV2 SAVING "  STREAM LEAKAGE" ON UNIT  70 AT TIME STEP  1, STRESS PERIOD   3



 UBDSV4 SAVING "             MNW" ON UNIT  70 AT TIME STEP  1, STRESS PERIOD   3
 UBDSV4 SAVING "      FARM WELLS" ON UNIT  70 AT TIME STEP  1, STRESS PERIOD   3
 UBDSV3 SAVING "FARM  NET  RECH." ON UNIT  70 AT TIME STEP  1, STRESS PERIOD   3
 
 SOLVING FOR HEAD 
 TIMESTEP FLAG ... =           9           3           2           1
 TIMESTEP FLAG ... =          10           3           2           2
 TIMESTEP FLAG ... =          11           3           2           3
 TIMESTEP FLAG ... =          12           3           2           4
 TIMESTEP FLAG ... =          13           3           2           5
 TIMESTEP FLAG ... =          14           3           2           6
 TIMESTEP FLAG ... =          15           3           2           7
     7 CALLS TO PCG ROUTINE FOR TIME STEP   2 IN STRESS PERIOD    3
    20 TOTAL ITERATIONS

 OUTPUT CONTROL FOR STRESS PERIOD    3   TIME STEP   2
    PRINT BUDGET
    SAVE HEAD FOR ALL LAYERS
    SAVE BUDGET
 UBDSV1 SAVING "         STORAGE" ON UNIT  70 AT TIME STEP  2, STRESS PERIOD   3
 UBDSV2 SAVING "   CONSTANT HEAD" ON UNIT  70 AT TIME STEP  2, STRESS PERIOD   3
 UBDSV1 SAVING "FLOW RIGHT FACE " ON UNIT  70 AT TIME STEP  2, STRESS PERIOD   3
 UBDSV1 SAVING "FLOW FRONT FACE " ON UNIT  70 AT TIME STEP  2, STRESS PERIOD   3
 UBDSV1 SAVING "FLOW LOWER FACE " ON UNIT  70 AT TIME STEP  2, STRESS PERIOD   3
 UBDSV4 SAVING " HEAD DEP BOUNDS" ON UNIT  70 AT TIME STEP  2, STRESS PERIOD   3
 UBUDSV SAVING "    UZF INFILTR." ON UNIT 61 AT TIME STEP  2, STRESS PERIOD    3
 UBUDSV SAVING "    UZF RECHARGE" ON UNIT 61 AT TIME STEP  2, STRESS PERIOD    3
 UBDSV3 SAVING "    UZF RECHARGE" ON UNIT  70 AT TIME STEP  2, STRESS PERIOD   3
 UBUDSV SAVING " SURFACE LEAKAGE" ON UNIT 61 AT TIME STEP  2, STRESS PERIOD    3
 UBDSV3 SAVING " SURFACE LEAKAGE" ON UNIT  70 AT TIME STEP  2, STRESS PERIOD   3


UNSATURATED ZONE PACKAGE VOLUMETRIC BUDGET FOR  TIME STEP    2 STRESS PERIOD    3
  ------------------------------------------------------------------------------



     CUMULATIVE VOLUMES      L**3       RATES FOR THIS TIME STEP      L**3/T
     ------------------                 ------------------------

           IN:                                      IN:
           ---                                      ---
        INFILTRATION =      350227.4570          INFILTRATION =        4218.1040

          OUT:                                     OUT:
          ----                                     ----
              UZF ET =       0.0000E+00                UZF ET =       0.0000E+00
        UZF RECHARGE =      140540.5097          UZF RECHARGE =        2706.7268

            IN - OUT =      209686.9473              IN - OUT =        1511.3772

          STORAGE:                                 STORAGE:
          --------                                 --------
      STORAGE CHANGE =      209674.5027        STORAGE CHANGE =        1511.0634

 PERCENT DISCREPANCY IS DIFFERENCE BETWEEN IN-OUT MINUS CHANGE IN STORAGE
 DIVIDED BY THE AVERAGE OF IN AND OUT TIMES 100

 PERCENT DISCREPANCY =           0.00     PERCENT DISCREPANCY =           0.01






 UBDSV2 SAVING "  STREAM LEAKAGE" ON UNIT  70 AT TIME STEP  2, STRESS PERIOD   3



 UBDSV4 SAVING "             MNW" ON UNIT  70 AT TIME STEP  2, STRESS PERIOD   3
 UBDSV4 SAVING "      FARM WELLS" ON UNIT  70 AT TIME STEP  2, STRESS PERIOD   3
 UBDSV3 SAVING "FARM  NET  RECH." ON UNIT  70 AT TIME STEP  2, STRESS PERIOD   3

 HEAD WILL BE SAVED ON UNIT   22 AT END OF TIME STEP   2, STRESS PERIOD    3
1
  VOLUMETRIC BUDGET FOR ENTIRE MODEL AT END OF TIME STEP  2 IN STRESS PERIOD   3
  ------------------------------------------------------------------------------

     CUMULATIVE VOLUMES      L**3       RATES FOR THIS TIME STEP      L**3/T
     ------------------                 ------------------------

           IN:                                      IN:
           ---                                      ---
             STORAGE =      807808.4375               STORAGE =       23685.9277
       CONSTANT HEAD =           0.0000         CONSTANT HEAD =           0.0000
     HEAD DEP BOUNDS =      361461.4062       HEAD DEP BOUNDS =        4118.9165
        UZF RECHARGE =      140540.5156          UZF RECHARGE =        2706.7268
               GW ET =           0.0000                 GW ET =           0.0000
     SURFACE LEAKAGE =           0.0000       SURFACE LEAKAGE =           0.0000
      STREAM LEAKAGE =      722276.7500        STREAM LEAKAGE =        8173.3584
                 MNW =       11259.0400                   MNW =         115.8842
          FARM WELLS =           0.0000            FARM WELLS =           0.0000
    FARM  NET  RECH. =     1907908.5000      FARM  NET  RECH. =        6856.0933

            TOTAL IN =     3951254.5000              TOTAL IN =       45656.9062

          OUT:                                     OUT:
          ----                                     ----
             STORAGE =      494131.3750               STORAGE =           0.0000
       CONSTANT HEAD =           0.0000         CONSTANT HEAD =           0.0000
     HEAD DEP BOUNDS =     1741418.2500       HEAD DEP BOUNDS =       18905.3711
        UZF RECHARGE =           0.0000          UZF RECHARGE =           0.0000
               GW ET =           0.0000                 GW ET =           0.0000
     SURFACE LEAKAGE =        2831.9670       SURFACE LEAKAGE =          15.7811
      STREAM LEAKAGE =     1020898.5000        STREAM LEAKAGE =        9094.1064
                 MNW =       11259.0400                   MNW =         115.8842
          FARM WELLS =           0.0000            FARM WELLS =           0.0000
    FARM  NET  RECH. =      680709.1875      FARM  NET  RECH. =       17527.5234

           TOTAL OUT =     3951248.2500             TOTAL OUT =       45658.6641

            IN - OUT =           6.2500              IN - OUT =          -1.7578

 PERCENT DISCREPANCY =           0.00     PERCENT DISCREPANCY =           0.00






          TIME SUMMARY AT END OF TIME STEP   2 IN STRESS PERIOD    3
                    SECONDS     MINUTES      HOURS       DAYS        YEARS
                    -----------------------------------------------------------
   TIME STEP LENGTH 1.31414E+06  21902.      365.04      15.210     4.16427E-02
 STRESS PERIOD TIME 2.62829E+06  43805.      730.08      30.420     8.32854E-02
         TOTAL TIME 7.88486E+06 1.31414E+05  2190.2      91.260     0.24986    
1
1
                            STRESS PERIOD NO.    4, LENGTH =   30.42000    
                            -----------------------------------------------

                              NUMBER OF TIME STEPS =     2

                               MULTIPLIER FOR DELT =     1.000

                            INITIAL TIME STEP SIZE =   15.21000    

 REUSING NON-PARAMETER GHB CELLS FROM LAST STRESS PERIOD

     92 GHB CELLS

 REUSING STREAM SEGMENT DATA FROM LAST STRESS PERIOD
 USING INFILTRATION RATE FROM PREVIOUS STRESS 
 PERIOD.CURRENT PERIOD IS:            4

 REUSING MNW7  FROM LAST STRESS PERIOD

 Parameter:  WELLS1
 WELL NO. LAYER    ROW    COL  F-WELL ID    FARM ID         QMAX         QMAXRESET       
 ----------------------------------------------------------------------------------------
       1      1      5      6          1          1      5.0000E+03      0.0000E+00
       2      1      8      6          2          1      5.0000E+03      0.0000E+00
       3      1      8      9          3          1      5.0000E+03      0.0000E+00
       4      1      5      9          4          2      3.0000E+03      0.0000E+00
       5      1      6     10          5          2      2.0000E+03      0.0000E+00
       6      1      7     11          6          2      1.0000E+03      0.0000E+00
       7      1     18      3          7          3      2.0000E+03      0.0000E+00
       8      1     21      3          8          3      4.0000E+03      0.0000E+00
       9      1     18     19          9          4      3.0000E+03      0.0000E+00
      10      1     21     19         10          4      5.0000E+03      0.0000E+00
      11      0      6      2        -11          5      5.0000E+03      1.0000E+00
      12      0      8      2        -12          5      5.0000E+03      1.0000E+00
      13      0     10      2        -13          5      5.0000E+03      1.0000E+00
      14      0      3     19        -14          6      1.0000E+04      1.0000E+00
      15      0      6     17        -15          6      6.0000E+03      1.0000E+00

 NUMBER OF ACTIVE FARM WELLS:       15

 FARM-ID  NUMBER OF WELLS PER FARM  TOTAL MAX.CAPACITY PER FARM
       1                         3                   15000.0000
       2                         3                    6000.0000
       3                         2                    6000.0000
       4                         2                    8000.0000
       5                         3                   15000.0000
       6                         2                   16000.0000
       7                         0                       0.0000
       8                         0                       0.0000
 Reading list on unit  20
 LIST SCALING FACTOR= 0.75000    
 (THE SCALE FACTOR WAS APPLIED TO FIELDS 2 - 7)
 Reading list on unit  30
 Reading list on unit  40

  REF. EVAPOTRANSPIRATION =  4.310000E-03
 Reading list on unit  50

Transpiratory and Evaporative Fractions of Crop Consumptive Use
    % Transpiration % Evap. for Precip. % Evap. for Irrig.
    1          0.485          0.515          0.500
    2          0.908          0.092          0.092
    3          0.000          1.000          1.000
    4          0.125          0.875          0.875
    5          0.887          0.113          0.000
    6          0.700          0.300          0.000
 Reading list on unit  60

FRACTIONS OF IN-EFFICIENT LOSSES TO SW-RUNOFF FROM 
     PRECIPITATION:  IRRIGATION:
    1          0.500          0.600
    2          0.400          0.300
    3          0.600          0.500
    4          0.700          0.600
    5          0.500          0.000
    6          0.300          0.000

       PRECIPITATION FLUX =  6.100000E-04

 OPENING FILE ON UNIT  99:
 NRDV.IN                                                                                                                                                                                                                                                                                                                                                                                                                                                                                                             
 READING SCALE FACTOR LIST ON UNIT  80
 FIELD     SCALE FACTOR
     1       1.0000    
     2       4.0000    
     3       1.0000    
     4       1.0000    

UNRANKED LIST OF NON-ROUTED DELIVERIES TO FARMS [L3]:
TYPE:             1

FARM-ID  VOLUME:
      1   6.000E+04
      2   6.000E+04
      3   8.000E+04
      4   4.000E+04
      5   4.000E+04
      6   8.000E+04
      7   0.000E+00
      8   0.000E+00

FARM-ID  PRIORITY RANK OF NRD-TYPE:
      1           1
      2           1
      3           1
      4           1
      5           1
      6           1
      7           1
      8           1

FARM-ID  USE-FLAG:
         0 = SUFFICIENT USE
         1 = ABSOLUTE USE (RECHARGE SURPLUS BACK INTO CANAL)
         2 = ABSOLUTE USE (INJECT SURPLUS INTO FARM-WELLS)
      1           0
      2           0
      3           0
      4           0
      5           0
      6           0
      7           0
      8           0

LIST OF NON-ROUTED DELIVERIES IN RANKED SEQUENCE [L3/T]:

FARM-ID  RATE:
      1   1.972E+03
      2   1.972E+03
      3   2.630E+03
      4   1.315E+03
      5   1.315E+03
      6   2.630E+03
      7   0.000E+00
      8   0.000E+00

FARM-ID  USE-FLAG:
         0 = SUFFICIENT USE
         1 = ABSOLUTE USE (RECHARGE SURPLUS BACK INTO CANAL)
         2 = ABSOLUTE USE (INJECT SURPLUS INTO FARM-WELLS)
      1           0
      2           0
      3           0
      4           0
      5           0
      6           0
      7           0
      8           0

FARM ALLOTMENT HEIGHT [L]:   0.050
 
 SOLVING FOR HEAD 
 TIMESTEP FLAG ... =           0           4           1           1
 TIMESTEP FLAG ... =           1           4           1           2
 TIMESTEP FLAG ... =           2           4           1           3
 TIMESTEP FLAG ... =           3           4           1           4
 TIMESTEP FLAG ... =           4           4           1           5


     5 CALLS TO PCG ROUTINE FOR TIME STEP   1 IN STRESS PERIOD    4
    23 TOTAL ITERATIONS

 OUTPUT CONTROL FOR STRESS PERIOD    4   TIME STEP   1
    SAVE BUDGET
 UBDSV1 SAVING "         STORAGE" ON UNIT  70 AT TIME STEP  1, STRESS PERIOD   4
 UBDSV2 SAVING "   CONSTANT HEAD" ON UNIT  70 AT TIME STEP  1, STRESS PERIOD   4
 UBDSV1 SAVING "FLOW RIGHT FACE " ON UNIT  70 AT TIME STEP  1, STRESS PERIOD   4
 UBDSV1 SAVING "FLOW FRONT FACE " ON UNIT  70 AT TIME STEP  1, STRESS PERIOD   4
 UBDSV1 SAVING "FLOW LOWER FACE " ON UNIT  70 AT TIME STEP  1, STRESS PERIOD   4
 UBDSV4 SAVING " HEAD DEP BOUNDS" ON UNIT  70 AT TIME STEP  1, STRESS PERIOD   4
 UBUDSV SAVING "    UZF INFILTR." ON UNIT 61 AT TIME STEP  1, STRESS PERIOD    4
 UBUDSV SAVING "    UZF RECHARGE" ON UNIT 61 AT TIME STEP  1, STRESS PERIOD    4
 UBDSV3 SAVING "    UZF RECHARGE" ON UNIT  70 AT TIME STEP  1, STRESS PERIOD   4
 UBUDSV SAVING " SURFACE LEAKAGE" ON UNIT 61 AT TIME STEP  1, STRESS PERIOD    4
 UBDSV3 SAVING " SURFACE LEAKAGE" ON UNIT  70 AT TIME STEP  1, STRESS PERIOD   4
 UBDSV2 SAVING "  STREAM LEAKAGE" ON UNIT  70 AT TIME STEP  1, STRESS PERIOD   4



 UBDSV4 SAVING "             MNW" ON UNIT  70 AT TIME STEP  1, STRESS PERIOD   4
 UBDSV4 SAVING "      FARM WELLS" ON UNIT  70 AT TIME STEP  1, STRESS PERIOD   4
 UBDSV3 SAVING "FARM  NET  RECH." ON UNIT  70 AT TIME STEP  1, STRESS PERIOD   4
 
 SOLVING FOR HEAD 
 TIMESTEP FLAG ... =           5           4           2           1
 TIMESTEP FLAG ... =           6           4           2           2
 TIMESTEP FLAG ... =           7           4           2           3
 TIMESTEP FLAG ... =           8           4           2           4
     4 CALLS TO PCG ROUTINE FOR TIME STEP   2 IN STRESS PERIOD    4
    13 TOTAL ITERATIONS

 OUTPUT CONTROL FOR STRESS PERIOD    4   TIME STEP   2
    SAVE BUDGET
 UBDSV1 SAVING "         STORAGE" ON UNIT  70 AT TIME STEP  2, STRESS PERIOD   4
 UBDSV2 SAVING "   CONSTANT HEAD" ON UNIT  70 AT TIME STEP  2, STRESS PERIOD   4
 UBDSV1 SAVING "FLOW RIGHT FACE " ON UNIT  70 AT TIME STEP  2, STRESS PERIOD   4
 UBDSV1 SAVING "FLOW FRONT FACE " ON UNIT  70 AT TIME STEP  2, STRESS PERIOD   4
 UBDSV1 SAVING "FLOW LOWER FACE " ON UNIT  70 AT TIME STEP  2, STRESS PERIOD   4
 UBDSV4 SAVING " HEAD DEP BOUNDS" ON UNIT  70 AT TIME STEP  2, STRESS PERIOD   4
 UBUDSV SAVING "    UZF INFILTR." ON UNIT 61 AT TIME STEP  2, STRESS PERIOD    4
 UBUDSV SAVING "    UZF RECHARGE" ON UNIT 61 AT TIME STEP  2, STRESS PERIOD    4
 UBDSV3 SAVING "    UZF RECHARGE" ON UNIT  70 AT TIME STEP  2, STRESS PERIOD   4
 UBUDSV SAVING " SURFACE LEAKAGE" ON UNIT 61 AT TIME STEP  2, STRESS PERIOD    4
 UBDSV3 SAVING " SURFACE LEAKAGE" ON UNIT  70 AT TIME STEP  2, STRESS PERIOD   4


UNSATURATED ZONE PACKAGE VOLUMETRIC BUDGET FOR  TIME STEP    2 STRESS PERIOD    4
  ------------------------------------------------------------------------------



     CUMULATIVE VOLUMES      L**3       RATES FOR THIS TIME STEP      L**3/T
     ------------------                 ------------------------

           IN:                                      IN:
           ---                                      ---
        INFILTRATION =      410321.8332          INFILTRATION =        1476.4400

          OUT:                                     OUT:
          ----                                     ----
              UZF ET =       0.0000E+00                UZF ET =       0.0000E+00
        UZF RECHARGE =      142661.2016          UZF RECHARGE =          28.7375

            IN - OUT =      267660.6316              IN - OUT =        1447.7025

          STORAGE:                                 STORAGE:
          --------                                 --------
      STORAGE CHANGE =      267642.5247        STORAGE CHANGE =        1447.5497

 PERCENT DISCREPANCY IS DIFFERENCE BETWEEN IN-OUT MINUS CHANGE IN STORAGE
 DIVIDED BY THE AVERAGE OF IN AND OUT TIMES 100

 PERCENT DISCREPANCY =           0.00     PERCENT DISCREPANCY =           0.01






 UBDSV2 SAVING "  STREAM LEAKAGE" ON UNIT  70 AT TIME STEP  2, STRESS PERIOD   4



 UBDSV4 SAVING "             MNW" ON UNIT  70 AT TIME STEP  2, STRESS PERIOD   4
 UBDSV4 SAVING "      FARM WELLS" ON UNIT  70 AT TIME STEP  2, STRESS PERIOD   4
 UBDSV3 SAVING "FARM  NET  RECH." ON UNIT  70 AT TIME STEP  2, STRESS PERIOD   4
1
  VOLUMETRIC BUDGET FOR ENTIRE MODEL AT END OF TIME STEP  2 IN STRESS PERIOD   4
  ------------------------------------------------------------------------------

     CUMULATIVE VOLUMES      L**3       RATES FOR THIS TIME STEP      L**3/T
     ------------------                 ------------------------

           IN:                                      IN:
           ---                                      ---
             STORAGE =     1943552.2500               STORAGE =       30230.9141
       CONSTANT HEAD =           0.0000         CONSTANT HEAD =           0.0000
     HEAD DEP BOUNDS =      499856.5625       HEAD DEP BOUNDS =        4681.0513
        UZF RECHARGE =      142661.2031          UZF RECHARGE =          28.7375
               GW ET =           0.0000                 GW ET =           0.0000
     SURFACE LEAKAGE =           0.0000       SURFACE LEAKAGE =           0.0000
      STREAM LEAKAGE =     1039123.8125        STREAM LEAKAGE =       11006.3652
                 MNW =       12568.1621                   MNW =          43.0911
          FARM WELLS =           0.0000            FARM WELLS =           0.0000
    FARM  NET  RECH. =     2018731.2500      FARM  NET  RECH. =        4120.7544

            TOTAL IN =     5656493.0000              TOTAL IN =       50110.9141

          OUT:                                     OUT:
          ----                                     ----
             STORAGE =      494131.3750               STORAGE =           0.0000
       CONSTANT HEAD =           0.0000         CONSTANT HEAD =           0.0000
     HEAD DEP BOUNDS =     2296867.7500       HEAD DEP BOUNDS =       18118.4023
        UZF RECHARGE =           0.0000          UZF RECHARGE =           0.0000
               GW ET =           0.0000                 GW ET =           0.0000
     SURFACE LEAKAGE =        2831.9670       SURFACE LEAKAGE =           0.0000
      STREAM LEAKAGE =     1184007.0000        STREAM LEAKAGE =        4515.1274
                 MNW =      183278.3750                   MNW =        5654.8667
          FARM WELLS =           0.0000            FARM WELLS =           0.0000
    FARM  NET  RECH. =     1495364.2500      FARM  NET  RECH. =       21823.0293

           TOTAL OUT =     5656481.0000             TOTAL OUT =       50111.4258

            IN - OUT =          12.0000              IN - OUT =          -0.5117

 PERCENT DISCREPANCY =           0.00     PERCENT DISCREPANCY =           0.00






          TIME SUMMARY AT END OF TIME STEP   2 IN STRESS PERIOD    4
                    SECONDS     MINUTES      HOURS       DAYS        YEARS
                    -----------------------------------------------------------
   TIME STEP LENGTH 1.31414E+06  21902.      365.04      15.210     4.16427E-02
 STRESS PERIOD TIME 2.62829E+06  43805.      730.08      30.420     8.32854E-02
         TOTAL TIME 1.05132E+07 1.75219E+05  2920.3      121.68     0.33314    
1
1
                            STRESS PERIOD NO.    5, LENGTH =   30.42000    
                            -----------------------------------------------

                              NUMBER OF TIME STEPS =     2

                               MULTIPLIER FOR DELT =     1.000

                            INITIAL TIME STEP SIZE =   15.21000    

 REUSING NON-PARAMETER GHB CELLS FROM LAST STRESS PERIOD

     92 GHB CELLS

 REUSING STREAM SEGMENT DATA FROM LAST STRESS PERIOD
 USING INFILTRATION RATE FROM PREVIOUS STRESS 
 PERIOD.CURRENT PERIOD IS:            5

 REUSING MNW7  FROM LAST STRESS PERIOD

 Parameter:  WELLS1
 WELL NO. LAYER    ROW    COL  F-WELL ID    FARM ID         QMAX         QMAXRESET       
 ----------------------------------------------------------------------------------------
       1      1      5      6          1          1      5.0000E+03      0.0000E+00
       2      1      8      6          2          1      5.0000E+03      0.0000E+00
       3      1      8      9          3          1      5.0000E+03      0.0000E+00
       4      1      5      9          4          2      3.0000E+03      0.0000E+00
       5      1      6     10          5          2      2.0000E+03      0.0000E+00
       6      1      7     11          6          2      1.0000E+03      0.0000E+00
       7      1     18      3          7          3      2.0000E+03      0.0000E+00
       8      1     21      3          8          3      4.0000E+03      0.0000E+00
       9      1     18     19          9          4      3.0000E+03      0.0000E+00
      10      1     21     19         10          4      5.0000E+03      0.0000E+00
      11      0      6      2        -11          5      5.0000E+03      1.0000E+00
      12      0      8      2        -12          5      5.0000E+03      1.0000E+00
      13      0     10      2        -13          5      5.0000E+03      1.0000E+00
      14      0      3     19        -14          6      1.0000E+04      1.0000E+00
      15      0      6     17        -15          6      6.0000E+03      1.0000E+00

 NUMBER OF ACTIVE FARM WELLS:       15

 FARM-ID  NUMBER OF WELLS PER FARM  TOTAL MAX.CAPACITY PER FARM
       1                         3                   15000.0000
       2                         3                    6000.0000
       3                         2                    6000.0000
       4                         2                    8000.0000
       5                         3                   15000.0000
       6                         2                   16000.0000
       7                         0                       0.0000
       8                         0                       0.0000
 Reading list on unit  20
 LIST SCALING FACTOR= 0.80000    
 (THE SCALE FACTOR WAS APPLIED TO FIELDS 2 - 7)
 Reading list on unit  30
 Reading list on unit  40

  REF. EVAPOTRANSPIRATION =  5.920000E-03
 Reading list on unit  50

Transpiratory and Evaporative Fractions of Crop Consumptive Use
    % Transpiration % Evap. for Precip. % Evap. for Irrig.
    1          0.846          0.154          0.154
    2          0.940          0.060          0.060
    3          0.000          1.000          1.000
    4          0.125          0.875          0.875
    5          0.924          0.076          0.000
    6          0.800          0.200          0.000
 Reading list on unit  60

FRACTIONS OF IN-EFFICIENT LOSSES TO SW-RUNOFF FROM 
     PRECIPITATION:  IRRIGATION:
    1          0.500          0.600
    2          0.400          0.300
    3          0.600          0.500
    4          0.700          0.600
    5          0.500          0.000
    6          0.300          0.000

       PRECIPITATION FLUX =  2.900000E-04

 OPENING FILE ON UNIT  99:
 NRDV.IN                                                                                                                                                                                                                                                                                                                                                                                                                                                                                                             
 READING SCALE FACTOR LIST ON UNIT  80
 FIELD     SCALE FACTOR
     1       1.0000    
     2       5.0000    
     3       1.0000    
     4       1.0000    

UNRANKED LIST OF NON-ROUTED DELIVERIES TO FARMS [L3]:
TYPE:             1

FARM-ID  VOLUME:
      1   7.500E+04
      2   7.500E+04
      3   1.000E+05
      4   5.000E+04
      5   5.000E+04
      6   1.000E+05
      7   0.000E+00
      8   0.000E+00

FARM-ID  PRIORITY RANK OF NRD-TYPE:
      1           1
      2           1
      3           1
      4           1
      5           1
      6           1
      7           1
      8           1

FARM-ID  USE-FLAG:
         0 = SUFFICIENT USE
         1 = ABSOLUTE USE (RECHARGE SURPLUS BACK INTO CANAL)
         2 = ABSOLUTE USE (INJECT SURPLUS INTO FARM-WELLS)
      1           0
      2           0
      3           0
      4           0
      5           0
      6           0
      7           0
      8           0

LIST OF NON-ROUTED DELIVERIES IN RANKED SEQUENCE [L3/T]:

FARM-ID  RATE:
      1   2.465E+03
      2   2.465E+03
      3   3.287E+03
      4   1.644E+03
      5   1.644E+03
      6   3.287E+03
      7   0.000E+00
      8   0.000E+00

FARM-ID  USE-FLAG:
         0 = SUFFICIENT USE
         1 = ABSOLUTE USE (RECHARGE SURPLUS BACK INTO CANAL)
         2 = ABSOLUTE USE (INJECT SURPLUS INTO FARM-WELLS)
      1           0
      2           0
      3           0
      4           0
      5           0
      6           0
      7           0
      8           0

FARM ALLOTMENT HEIGHT [L]:   0.050
 
 SOLVING FOR HEAD 
 TIMESTEP FLAG ... =           0           5           1           1
 TIMESTEP FLAG ... =           1           5           1           2
 TIMESTEP FLAG ... =           2           5           1           3
 TIMESTEP FLAG ... =           3           5           1           4
 TIMESTEP FLAG ... =           4           5           1           5
 TIMESTEP FLAG ... =           5           5           1           6
 TIMESTEP FLAG ... =           6           5           1           7
 TIMESTEP FLAG ... =           7           5           1           8


     8 CALLS TO PCG ROUTINE FOR TIME STEP   1 IN STRESS PERIOD    5
    40 TOTAL ITERATIONS

 OUTPUT CONTROL FOR STRESS PERIOD    5   TIME STEP   1
    SAVE BUDGET
 UBDSV1 SAVING "         STORAGE" ON UNIT  70 AT TIME STEP  1, STRESS PERIOD   5
 UBDSV2 SAVING "   CONSTANT HEAD" ON UNIT  70 AT TIME STEP  1, STRESS PERIOD   5
 UBDSV1 SAVING "FLOW RIGHT FACE " ON UNIT  70 AT TIME STEP  1, STRESS PERIOD   5
 UBDSV1 SAVING "FLOW FRONT FACE " ON UNIT  70 AT TIME STEP  1, STRESS PERIOD   5
 UBDSV1 SAVING "FLOW LOWER FACE " ON UNIT  70 AT TIME STEP  1, STRESS PERIOD   5
 UBDSV4 SAVING " HEAD DEP BOUNDS" ON UNIT  70 AT TIME STEP  1, STRESS PERIOD   5
 UBUDSV SAVING "    UZF INFILTR." ON UNIT 61 AT TIME STEP  1, STRESS PERIOD    5
 UBUDSV SAVING "    UZF RECHARGE" ON UNIT 61 AT TIME STEP  1, STRESS PERIOD    5
 UBDSV3 SAVING "    UZF RECHARGE" ON UNIT  70 AT TIME STEP  1, STRESS PERIOD   5
 UBUDSV SAVING " SURFACE LEAKAGE" ON UNIT 61 AT TIME STEP  1, STRESS PERIOD    5
 UBDSV3 SAVING " SURFACE LEAKAGE" ON UNIT  70 AT TIME STEP  1, STRESS PERIOD   5
 UBDSV2 SAVING "  STREAM LEAKAGE" ON UNIT  70 AT TIME STEP  1, STRESS PERIOD   5



 UBDSV4 SAVING "             MNW" ON UNIT  70 AT TIME STEP  1, STRESS PERIOD   5
 UBDSV4 SAVING "      FARM WELLS" ON UNIT  70 AT TIME STEP  1, STRESS PERIOD   5
 UBDSV3 SAVING "FARM  NET  RECH." ON UNIT  70 AT TIME STEP  1, STRESS PERIOD   5
 
 SOLVING FOR HEAD 
 TIMESTEP FLAG ... =           8           5           2           1
 TIMESTEP FLAG ... =           9           5           2           2
 TIMESTEP FLAG ... =          10           5           2           3
 TIMESTEP FLAG ... =          11           5           2           4
 TIMESTEP FLAG ... =          12           5           2           5
 TIMESTEP FLAG ... =          13           5           2           6
     6 CALLS TO PCG ROUTINE FOR TIME STEP   2 IN STRESS PERIOD    5
    28 TOTAL ITERATIONS

 OUTPUT CONTROL FOR STRESS PERIOD    5   TIME STEP   2
    SAVE BUDGET
 UBDSV1 SAVING "         STORAGE" ON UNIT  70 AT TIME STEP  2, STRESS PERIOD   5
 UBDSV2 SAVING "   CONSTANT HEAD" ON UNIT  70 AT TIME STEP  2, STRESS PERIOD   5
 UBDSV1 SAVING "FLOW RIGHT FACE " ON UNIT  70 AT TIME STEP  2, STRESS PERIOD   5
 UBDSV1 SAVING "FLOW FRONT FACE " ON UNIT  70 AT TIME STEP  2, STRESS PERIOD   5
 UBDSV1 SAVING "FLOW LOWER FACE " ON UNIT  70 AT TIME STEP  2, STRESS PERIOD   5
 UBDSV4 SAVING " HEAD DEP BOUNDS" ON UNIT  70 AT TIME STEP  2, STRESS PERIOD   5
 UBUDSV SAVING "    UZF INFILTR." ON UNIT 61 AT TIME STEP  2, STRESS PERIOD    5
 UBUDSV SAVING "    UZF RECHARGE" ON UNIT 61 AT TIME STEP  2, STRESS PERIOD    5
 UBDSV3 SAVING "    UZF RECHARGE" ON UNIT  70 AT TIME STEP  2, STRESS PERIOD   5
 UBUDSV SAVING " SURFACE LEAKAGE" ON UNIT 61 AT TIME STEP  2, STRESS PERIOD    5
 UBDSV3 SAVING " SURFACE LEAKAGE" ON UNIT  70 AT TIME STEP  2, STRESS PERIOD   5


UNSATURATED ZONE PACKAGE VOLUMETRIC BUDGET FOR  TIME STEP    2 STRESS PERIOD    5
  ------------------------------------------------------------------------------



     CUMULATIVE VOLUMES      L**3       RATES FOR THIS TIME STEP      L**3/T
     ------------------                 ------------------------

           IN:                                      IN:
           ---                                      ---
        INFILTRATION =      471161.8371          INFILTRATION =        2000.0001

          OUT:                                     OUT:
          ----                                     ----
              UZF ET =       0.0000E+00                UZF ET =       0.0000E+00
        UZF RECHARGE =      143005.8469          UZF RECHARGE =          17.3367

            IN - OUT =      328155.9902              IN - OUT =        1982.6635

          STORAGE:                                 STORAGE:
          --------                                 --------
      STORAGE CHANGE =      328138.4485        STORAGE CHANGE =        1982.6930

 PERCENT DISCREPANCY IS DIFFERENCE BETWEEN IN-OUT MINUS CHANGE IN STORAGE
 DIVIDED BY THE AVERAGE OF IN AND OUT TIMES 100

 PERCENT DISCREPANCY =           0.00     PERCENT DISCREPANCY =           0.00






 UBDSV2 SAVING "  STREAM LEAKAGE" ON UNIT  70 AT TIME STEP  2, STRESS PERIOD   5



 UBDSV4 SAVING "             MNW" ON UNIT  70 AT TIME STEP  2, STRESS PERIOD   5
 UBDSV4 SAVING "      FARM WELLS" ON UNIT  70 AT TIME STEP  2, STRESS PERIOD   5
 UBDSV3 SAVING "FARM  NET  RECH." ON UNIT  70 AT TIME STEP  2, STRESS PERIOD   5
1
  VOLUMETRIC BUDGET FOR ENTIRE MODEL AT END OF TIME STEP  2 IN STRESS PERIOD   5
  ------------------------------------------------------------------------------

     CUMULATIVE VOLUMES      L**3       RATES FOR THIS TIME STEP      L**3/T
     ------------------                 ------------------------

           IN:                                      IN:
           ---                                      ---
             STORAGE =     3527706.0000               STORAGE =       49405.3867
       CONSTANT HEAD =           0.0000         CONSTANT HEAD =           0.0000
     HEAD DEP BOUNDS =      668742.3750       HEAD DEP BOUNDS =        5830.2930
        UZF RECHARGE =      143005.8438          UZF RECHARGE =          17.3367
               GW ET =           0.0000                 GW ET =           0.0000
     SURFACE LEAKAGE =           0.0000       SURFACE LEAKAGE =           0.0000
      STREAM LEAKAGE =     1429248.0000        STREAM LEAKAGE =       13304.5723
                 MNW =       12568.1621                   MNW =           0.0000
          FARM WELLS =           0.0000            FARM WELLS =           0.0000
    FARM  NET  RECH. =     2415918.5000      FARM  NET  RECH. =       14070.9951

            TOTAL IN =     8197189.0000              TOTAL IN =       82628.5781

          OUT:                                     OUT:
          ----                                     ----
             STORAGE =      495215.4375               STORAGE =           0.0000
       CONSTANT HEAD =           0.0000         CONSTANT HEAD =           0.0000
     HEAD DEP BOUNDS =     2831594.2500       HEAD DEP BOUNDS =       17425.4531
        UZF RECHARGE =           0.0000          UZF RECHARGE =           0.0000
               GW ET =           0.0000                 GW ET =           0.0000
     SURFACE LEAKAGE =        2831.9670       SURFACE LEAKAGE =           0.0000
      STREAM LEAKAGE =     1247466.0000        STREAM LEAKAGE =        1548.0916
                 MNW =      933266.5625                   MNW =       26849.4941
          FARM WELLS =      715076.3750            FARM WELLS =       23733.6387
    FARM  NET  RECH. =     1971724.2500      FARM  NET  RECH. =       13071.5654

           TOTAL OUT =     8197175.0000             TOTAL OUT =       82628.2422

            IN - OUT =          14.0000              IN - OUT =           0.3359

 PERCENT DISCREPANCY =           0.00     PERCENT DISCREPANCY =           0.00






          TIME SUMMARY AT END OF TIME STEP   2 IN STRESS PERIOD    5
                    SECONDS     MINUTES      HOURS       DAYS        YEARS
                    -----------------------------------------------------------
   TIME STEP LENGTH 1.31414E+06  21902.      365.04      15.210     4.16427E-02
 STRESS PERIOD TIME 2.62829E+06  43805.      730.08      30.420     8.32854E-02
         TOTAL TIME 1.31414E+07 2.19024E+05  3650.4      152.10     0.41643    
1
1
                            STRESS PERIOD NO.    6, LENGTH =   30.42000    
                            -----------------------------------------------

                              NUMBER OF TIME STEPS =     2

                               MULTIPLIER FOR DELT =     1.000

                            INITIAL TIME STEP SIZE =   15.21000    

 REUSING NON-PARAMETER GHB CELLS FROM LAST STRESS PERIOD

     92 GHB CELLS

 REUSING STREAM SEGMENT DATA FROM LAST STRESS PERIOD
 USING INFILTRATION RATE FROM PREVIOUS STRESS 
 PERIOD.CURRENT PERIOD IS:            6

 REUSING MNW7  FROM LAST STRESS PERIOD

 Parameter:  WELLS1
 WELL NO. LAYER    ROW    COL  F-WELL ID    FARM ID         QMAX         QMAXRESET       
 ----------------------------------------------------------------------------------------
       1      1      5      6          1          1      5.0000E+03      0.0000E+00
       2      1      8      6          2          1      5.0000E+03      0.0000E+00
       3      1      8      9          3          1      5.0000E+03      0.0000E+00
       4      1      5      9          4          2      3.0000E+03      0.0000E+00
       5      1      6     10          5          2      2.0000E+03      0.0000E+00
       6      1      7     11          6          2      1.0000E+03      0.0000E+00
       7      1     18      3          7          3      2.0000E+03      0.0000E+00
       8      1     21      3          8          3      4.0000E+03      0.0000E+00
       9      1     18     19          9          4      3.0000E+03      0.0000E+00
      10      1     21     19         10          4      5.0000E+03      0.0000E+00
      11      0      6      2        -11          5      5.0000E+03      1.0000E+00
      12      0      8      2        -12          5      5.0000E+03      1.0000E+00
      13      0     10      2        -13          5      5.0000E+03      1.0000E+00
      14      0      3     19        -14          6      1.0000E+04      1.0000E+00
      15      0      6     17        -15          6      6.0000E+03      1.0000E+00

 NUMBER OF ACTIVE FARM WELLS:       15

 FARM-ID  NUMBER OF WELLS PER FARM  TOTAL MAX.CAPACITY PER FARM
       1                         3                   15000.0000
       2                         3                    6000.0000
       3                         2                    6000.0000
       4                         2                    8000.0000
       5                         3                   15000.0000
       6                         2                   16000.0000
       7                         0                       0.0000
       8                         0                       0.0000
 Reading list on unit  20
 LIST SCALING FACTOR= 0.85000    
 (THE SCALE FACTOR WAS APPLIED TO FIELDS 2 - 7)
 Reading list on unit  30
 Reading list on unit  40

  REF. EVAPOTRANSPIRATION =  6.880000E-03
 Reading list on unit  50

Transpiratory and Evaporative Fractions of Crop Consumptive Use
    % Transpiration % Evap. for Precip. % Evap. for Irrig.
    1          0.914          0.086          0.086
    2          0.950          0.050          0.050
    3          0.000          1.000          1.000
    4          0.125          0.875          0.875
    5          0.927          0.073          0.000
    6          0.900          0.100          0.000
 Reading list on unit  60

FRACTIONS OF IN-EFFICIENT LOSSES TO SW-RUNOFF FROM 
     PRECIPITATION:  IRRIGATION:
    1          0.500          0.600
    2          0.400          0.300
    3          0.600          0.500
    4          0.700          0.600
    5          0.500          0.000
    6          0.300          0.000

       PRECIPITATION FLUX =  1.300000E-04

 OPENING FILE ON UNIT  99:
 NRDV.IN                                                                                                                                                                                                                                                                                                                                                                                                                                                                                                             
 READING SCALE FACTOR LIST ON UNIT  80
 FIELD     SCALE FACTOR
     1       1.0000    
     2       6.0000    
     3       1.0000    
     4       1.0000    

UNRANKED LIST OF NON-ROUTED DELIVERIES TO FARMS [L3]:
TYPE:             1

FARM-ID  VOLUME:
      1   9.000E+04
      2   9.000E+04
      3   1.200E+05
      4   6.000E+04
      5   6.000E+04
      6   1.200E+05
      7   0.000E+00
      8   0.000E+00

FARM-ID  PRIORITY RANK OF NRD-TYPE:
      1           1
      2           1
      3           1
      4           1
      5           1
      6           1
      7           1
      8           1

FARM-ID  USE-FLAG:
         0 = SUFFICIENT USE
         1 = ABSOLUTE USE (RECHARGE SURPLUS BACK INTO CANAL)
         2 = ABSOLUTE USE (INJECT SURPLUS INTO FARM-WELLS)
      1           0
      2           0
      3           0
      4           0
      5           0
      6           0
      7           0
      8           0

LIST OF NON-ROUTED DELIVERIES IN RANKED SEQUENCE [L3/T]:

FARM-ID  RATE:
      1   2.959E+03
      2   2.959E+03
      3   3.945E+03
      4   1.972E+03
      5   1.972E+03
      6   3.945E+03
      7   0.000E+00
      8   0.000E+00

FARM-ID  USE-FLAG:
         0 = SUFFICIENT USE
         1 = ABSOLUTE USE (RECHARGE SURPLUS BACK INTO CANAL)
         2 = ABSOLUTE USE (INJECT SURPLUS INTO FARM-WELLS)
      1           0
      2           0
      3           0
      4           0
      5           0
      6           0
      7           0
      8           0

FARM ALLOTMENT HEIGHT [L]:   0.200
 
 SOLVING FOR HEAD 
 TIMESTEP FLAG ... =           0           6           1           1
 TIMESTEP FLAG ... =           1           6           1           2
 TIMESTEP FLAG ... =           2           6           1           3
 TIMESTEP FLAG ... =           3           6           1           4
 TIMESTEP FLAG ... =           4           6           1           5
 TIMESTEP FLAG ... =           5           6           1           6


     6 CALLS TO PCG ROUTINE FOR TIME STEP   1 IN STRESS PERIOD    6
    31 TOTAL ITERATIONS

 OUTPUT CONTROL FOR STRESS PERIOD    6   TIME STEP   1
    SAVE BUDGET
 UBDSV1 SAVING "         STORAGE" ON UNIT  70 AT TIME STEP  1, STRESS PERIOD   6
 UBDSV2 SAVING "   CONSTANT HEAD" ON UNIT  70 AT TIME STEP  1, STRESS PERIOD   6
 UBDSV1 SAVING "FLOW RIGHT FACE " ON UNIT  70 AT TIME STEP  1, STRESS PERIOD   6
 UBDSV1 SAVING "FLOW FRONT FACE " ON UNIT  70 AT TIME STEP  1, STRESS PERIOD   6
 UBDSV1 SAVING "FLOW LOWER FACE " ON UNIT  70 AT TIME STEP  1, STRESS PERIOD   6
 UBDSV4 SAVING " HEAD DEP BOUNDS" ON UNIT  70 AT TIME STEP  1, STRESS PERIOD   6
 UBUDSV SAVING "    UZF INFILTR." ON UNIT 61 AT TIME STEP  1, STRESS PERIOD    6
 UBUDSV SAVING "    UZF RECHARGE" ON UNIT 61 AT TIME STEP  1, STRESS PERIOD    6
 UBDSV3 SAVING "    UZF RECHARGE" ON UNIT  70 AT TIME STEP  1, STRESS PERIOD   6
 UBUDSV SAVING " SURFACE LEAKAGE" ON UNIT 61 AT TIME STEP  1, STRESS PERIOD    6
 UBDSV3 SAVING " SURFACE LEAKAGE" ON UNIT  70 AT TIME STEP  1, STRESS PERIOD   6
 UBDSV2 SAVING "  STREAM LEAKAGE" ON UNIT  70 AT TIME STEP  1, STRESS PERIOD   6



 UBDSV4 SAVING "             MNW" ON UNIT  70 AT TIME STEP  1, STRESS PERIOD   6
 UBDSV4 SAVING "      FARM WELLS" ON UNIT  70 AT TIME STEP  1, STRESS PERIOD   6
 UBDSV3 SAVING "FARM  NET  RECH." ON UNIT  70 AT TIME STEP  1, STRESS PERIOD   6
 
 SOLVING FOR HEAD 
 TIMESTEP FLAG ... =           6           6           2           1
 TIMESTEP FLAG ... =           7           6           2           2
 TIMESTEP FLAG ... =           8           6           2           3
 TIMESTEP FLAG ... =           9           6           2           4
 TIMESTEP FLAG ... =          10           6           2           5
     5 CALLS TO PCG ROUTINE FOR TIME STEP   2 IN STRESS PERIOD    6
    18 TOTAL ITERATIONS

 OUTPUT CONTROL FOR STRESS PERIOD    6   TIME STEP   2
    PRINT BUDGET
    SAVE HEAD FOR ALL LAYERS
    SAVE BUDGET
 UBDSV1 SAVING "         STORAGE" ON UNIT  70 AT TIME STEP  2, STRESS PERIOD   6
 UBDSV2 SAVING "   CONSTANT HEAD" ON UNIT  70 AT TIME STEP  2, STRESS PERIOD   6
 UBDSV1 SAVING "FLOW RIGHT FACE " ON UNIT  70 AT TIME STEP  2, STRESS PERIOD   6
 UBDSV1 SAVING "FLOW FRONT FACE " ON UNIT  70 AT TIME STEP  2, STRESS PERIOD   6
 UBDSV1 SAVING "FLOW LOWER FACE " ON UNIT  70 AT TIME STEP  2, STRESS PERIOD   6
 UBDSV4 SAVING " HEAD DEP BOUNDS" ON UNIT  70 AT TIME STEP  2, STRESS PERIOD   6
 UBUDSV SAVING "    UZF INFILTR." ON UNIT 61 AT TIME STEP  2, STRESS PERIOD    6
 UBUDSV SAVING "    UZF RECHARGE" ON UNIT 61 AT TIME STEP  2, STRESS PERIOD    6
 UBDSV3 SAVING "    UZF RECHARGE" ON UNIT  70 AT TIME STEP  2, STRESS PERIOD   6
 UBUDSV SAVING " SURFACE LEAKAGE" ON UNIT 61 AT TIME STEP  2, STRESS PERIOD    6
 UBDSV3 SAVING " SURFACE LEAKAGE" ON UNIT  70 AT TIME STEP  2, STRESS PERIOD   6


UNSATURATED ZONE PACKAGE VOLUMETRIC BUDGET FOR  TIME STEP    2 STRESS PERIOD    6
  ------------------------------------------------------------------------------



     CUMULATIVE VOLUMES      L**3       RATES FOR THIS TIME STEP      L**3/T
     ------------------                 ------------------------

           IN:                                      IN:
           ---                                      ---
        INFILTRATION =      532001.8410          INFILTRATION =        2000.0001

          OUT:                                     OUT:
          ----                                     ----
              UZF ET =       0.0000E+00                UZF ET =       0.0000E+00
        UZF RECHARGE =      147062.3863          UZF RECHARGE =         204.3421

            IN - OUT =      384939.4547              IN - OUT =        1795.6580

          STORAGE:                                 STORAGE:
          --------                                 --------
      STORAGE CHANGE =      384922.9689        STORAGE CHANGE =        1795.6938

 PERCENT DISCREPANCY IS DIFFERENCE BETWEEN IN-OUT MINUS CHANGE IN STORAGE
 DIVIDED BY THE AVERAGE OF IN AND OUT TIMES 100

 PERCENT DISCREPANCY =           0.00     PERCENT DISCREPANCY =           0.00






 UBDSV2 SAVING "  STREAM LEAKAGE" ON UNIT  70 AT TIME STEP  2, STRESS PERIOD   6



 UBDSV4 SAVING "             MNW" ON UNIT  70 AT TIME STEP  2, STRESS PERIOD   6
 UBDSV4 SAVING "      FARM WELLS" ON UNIT  70 AT TIME STEP  2, STRESS PERIOD   6
 UBDSV3 SAVING "FARM  NET  RECH." ON UNIT  70 AT TIME STEP  2, STRESS PERIOD   6

 HEAD WILL BE SAVED ON UNIT   22 AT END OF TIME STEP   2, STRESS PERIOD    6
1
  VOLUMETRIC BUDGET FOR ENTIRE MODEL AT END OF TIME STEP  2 IN STRESS PERIOD   6
  ------------------------------------------------------------------------------

     CUMULATIVE VOLUMES      L**3       RATES FOR THIS TIME STEP      L**3/T
     ------------------                 ------------------------

           IN:                                      IN:
           ---                                      ---
             STORAGE =     4774908.0000               STORAGE =       38555.5742
       CONSTANT HEAD =           0.0000         CONSTANT HEAD =           0.0000
     HEAD DEP BOUNDS =      866771.5625       HEAD DEP BOUNDS =        6728.5684
        UZF RECHARGE =      147062.3906          UZF RECHARGE =         204.3421
               GW ET =           0.0000                 GW ET =           0.0000
     SURFACE LEAKAGE =           0.0000       SURFACE LEAKAGE =           0.0000
      STREAM LEAKAGE =     1870941.7500        STREAM LEAKAGE =       14819.0439
                 MNW =       14915.3203                   MNW =          37.7364
          FARM WELLS =           0.0000            FARM WELLS =           0.0000
    FARM  NET  RECH. =     2887400.7500      FARM  NET  RECH. =       15563.8584

            TOTAL IN =    10562000.0000              TOTAL IN =       75909.1250

          OUT:                                     OUT:
          ----                                     ----
             STORAGE =      577509.4375               STORAGE =        2011.8635
       CONSTANT HEAD =           0.0000         CONSTANT HEAD =           0.0000
     HEAD DEP BOUNDS =     3351526.5000       HEAD DEP BOUNDS =       17006.7637
        UZF RECHARGE =           0.0000          UZF RECHARGE =           0.0000
               GW ET =           0.0000                 GW ET =           0.0000
     SURFACE LEAKAGE =        2831.9670       SURFACE LEAKAGE =           0.0000
      STREAM LEAKAGE =     1271193.1250        STREAM LEAKAGE =         553.1971
                 MNW =     1391913.7500                   MNW =       15037.7363
          FARM WELLS =     1626249.8750            FARM WELLS =       29953.1094
    FARM  NET  RECH. =     2340862.5000      FARM  NET  RECH. =       11349.9609

           TOTAL OUT =    10562088.0000             TOTAL OUT =       75912.6328

            IN - OUT =         -88.0000              IN - OUT =          -3.5078

 PERCENT DISCREPANCY =           0.00     PERCENT DISCREPANCY =           0.00






          TIME SUMMARY AT END OF TIME STEP   2 IN STRESS PERIOD    6
                    SECONDS     MINUTES      HOURS       DAYS        YEARS
                    -----------------------------------------------------------
   TIME STEP LENGTH 1.31414E+06  21902.      365.04      15.210     4.16427E-02
 STRESS PERIOD TIME 2.62829E+06  43805.      730.08      30.420     8.32854E-02
         TOTAL TIME 1.57697E+07 2.62829E+05  4380.5      182.52     0.49971    
1
1
                            STRESS PERIOD NO.    7, LENGTH =   30.42000    
                            -----------------------------------------------

                              NUMBER OF TIME STEPS =     2

                               MULTIPLIER FOR DELT =     1.000

                            INITIAL TIME STEP SIZE =   15.21000    

 REUSING NON-PARAMETER GHB CELLS FROM LAST STRESS PERIOD

     92 GHB CELLS

 REUSING STREAM SEGMENT DATA FROM LAST STRESS PERIOD
 USING INFILTRATION RATE FROM PREVIOUS STRESS 
 PERIOD.CURRENT PERIOD IS:            7

 REUSING MNW7  FROM LAST STRESS PERIOD

 Parameter:  WELLS1
 WELL NO. LAYER    ROW    COL  F-WELL ID    FARM ID         QMAX         QMAXRESET       
 ----------------------------------------------------------------------------------------
       1      1      5      6          1          1      5.0000E+03      0.0000E+00
       2      1      8      6          2          1      5.0000E+03      0.0000E+00
       3      1      8      9          3          1      5.0000E+03      0.0000E+00
       4      1      5      9          4          2      3.0000E+03      0.0000E+00
       5      1      6     10          5          2      2.0000E+03      0.0000E+00
       6      1      7     11          6          2      1.0000E+03      0.0000E+00
       7      1     18      3          7          3      2.0000E+03      0.0000E+00
       8      1     21      3          8          3      4.0000E+03      0.0000E+00
       9      1     18     19          9          4      3.0000E+03      0.0000E+00
      10      1     21     19         10          4      5.0000E+03      0.0000E+00
      11      0      6      2        -11          5      5.0000E+03      1.0000E+00
      12      0      8      2        -12          5      5.0000E+03      1.0000E+00
      13      0     10      2        -13          5      5.0000E+03      1.0000E+00
      14      0      3     19        -14          6      1.0000E+04      1.0000E+00
      15      0      6     17        -15          6      6.0000E+03      1.0000E+00

 NUMBER OF ACTIVE FARM WELLS:       15

 FARM-ID  NUMBER OF WELLS PER FARM  TOTAL MAX.CAPACITY PER FARM
       1                         3                   15000.0000
       2                         3                    6000.0000
       3                         2                    6000.0000
       4                         2                    8000.0000
       5                         3                   15000.0000
       6                         2                   16000.0000
       7                         0                       0.0000
       8                         0                       0.0000
 Reading list on unit  20
 LIST SCALING FACTOR= 0.90000    
 (THE SCALE FACTOR WAS APPLIED TO FIELDS 2 - 7)
 Reading list on unit  30
 Reading list on unit  40

  REF. EVAPOTRANSPIRATION =  6.920000E-03
 Reading list on unit  50

Transpiratory and Evaporative Fractions of Crop Consumptive Use
    % Transpiration % Evap. for Precip. % Evap. for Irrig.
    1          0.000          1.000          0.500
    2          0.950          0.050          0.050
    3          0.000          1.000          1.000
    4          0.125          0.875          0.875
    5          0.927          0.073          0.000
    6          0.900          0.100          0.000
 Reading list on unit  60

FRACTIONS OF IN-EFFICIENT LOSSES TO SW-RUNOFF FROM 
     PRECIPITATION:  IRRIGATION:
    1          0.500          0.600
    2          0.400          0.300
    3          0.600          0.500
    4          0.700          0.600
    5          0.500          0.000
    6          0.300          0.000

       PRECIPITATION FLUX =  3.000000E-05

 OPENING FILE ON UNIT  99:
 NRDV.IN                                                                                                                                                                                                                                                                                                                                                                                                                                                                                                             
 READING SCALE FACTOR LIST ON UNIT  80
 FIELD     SCALE FACTOR
     1       1.0000    
     2       6.0000    
     3       1.0000    
     4       1.0000    

UNRANKED LIST OF NON-ROUTED DELIVERIES TO FARMS [L3]:
TYPE:             1

FARM-ID  VOLUME:
      1   9.000E+04
      2   9.000E+04
      3   1.200E+05
      4   6.000E+04
      5   6.000E+04
      6   1.200E+05
      7   0.000E+00
      8   0.000E+00

FARM-ID  PRIORITY RANK OF NRD-TYPE:
      1           1
      2           1
      3           1
      4           1
      5           1
      6           1
      7           1
      8           1

FARM-ID  USE-FLAG:
         0 = SUFFICIENT USE
         1 = ABSOLUTE USE (RECHARGE SURPLUS BACK INTO CANAL)
         2 = ABSOLUTE USE (INJECT SURPLUS INTO FARM-WELLS)
      1           0
      2           0
      3           0
      4           0
      5           0
      6           0
      7           0
      8           0

LIST OF NON-ROUTED DELIVERIES IN RANKED SEQUENCE [L3/T]:

FARM-ID  RATE:
      1   2.959E+03
      2   2.959E+03
      3   3.945E+03
      4   1.972E+03
      5   1.972E+03
      6   3.945E+03
      7   0.000E+00
      8   0.000E+00

FARM-ID  USE-FLAG:
         0 = SUFFICIENT USE
         1 = ABSOLUTE USE (RECHARGE SURPLUS BACK INTO CANAL)
         2 = ABSOLUTE USE (INJECT SURPLUS INTO FARM-WELLS)
      1           0
      2           0
      3           0
      4           0
      5           0
      6           0
      7           0
      8           0

FARM ALLOTMENT HEIGHT [L]:   0.200
 
 SOLVING FOR HEAD 
 TIMESTEP FLAG ... =           0           7           1           1
 TIMESTEP FLAG ... =           1           7           1           2
 TIMESTEP FLAG ... =           2           7           1           3
 TIMESTEP FLAG ... =           3           7           1           4
 TIMESTEP FLAG ... =           4           7           1           5
 TIMESTEP FLAG ... =           5           7           1           6
 TIMESTEP FLAG ... =           6           7           1           7


     7 CALLS TO PCG ROUTINE FOR TIME STEP   1 IN STRESS PERIOD    7
    28 TOTAL ITERATIONS

 OUTPUT CONTROL FOR STRESS PERIOD    7   TIME STEP   1
    SAVE BUDGET
 UBDSV1 SAVING "         STORAGE" ON UNIT  70 AT TIME STEP  1, STRESS PERIOD   7
 UBDSV2 SAVING "   CONSTANT HEAD" ON UNIT  70 AT TIME STEP  1, STRESS PERIOD   7
 UBDSV1 SAVING "FLOW RIGHT FACE " ON UNIT  70 AT TIME STEP  1, STRESS PERIOD   7
 UBDSV1 SAVING "FLOW FRONT FACE " ON UNIT  70 AT TIME STEP  1, STRESS PERIOD   7
 UBDSV1 SAVING "FLOW LOWER FACE " ON UNIT  70 AT TIME STEP  1, STRESS PERIOD   7
 UBDSV4 SAVING " HEAD DEP BOUNDS" ON UNIT  70 AT TIME STEP  1, STRESS PERIOD   7
 UBUDSV SAVING "    UZF INFILTR." ON UNIT 61 AT TIME STEP  1, STRESS PERIOD    7
 UBUDSV SAVING "    UZF RECHARGE" ON UNIT 61 AT TIME STEP  1, STRESS PERIOD    7
 UBDSV3 SAVING "    UZF RECHARGE" ON UNIT  70 AT TIME STEP  1, STRESS PERIOD   7
 UBUDSV SAVING " SURFACE LEAKAGE" ON UNIT 61 AT TIME STEP  1, STRESS PERIOD    7
 UBDSV3 SAVING " SURFACE LEAKAGE" ON UNIT  70 AT TIME STEP  1, STRESS PERIOD   7
 UBDSV2 SAVING "  STREAM LEAKAGE" ON UNIT  70 AT TIME STEP  1, STRESS PERIOD   7



 UBDSV4 SAVING "             MNW" ON UNIT  70 AT TIME STEP  1, STRESS PERIOD   7
 UBDSV4 SAVING "      FARM WELLS" ON UNIT  70 AT TIME STEP  1, STRESS PERIOD   7
 UBDSV3 SAVING "FARM  NET  RECH." ON UNIT  70 AT TIME STEP  1, STRESS PERIOD   7
 
 SOLVING FOR HEAD 
 TIMESTEP FLAG ... =           7           7           2           1
 TIMESTEP FLAG ... =           8           7           2           2
 TIMESTEP FLAG ... =           9           7           2           3
 TIMESTEP FLAG ... =          10           7           2           4
 TIMESTEP FLAG ... =          11           7           2           5
     5 CALLS TO PCG ROUTINE FOR TIME STEP   2 IN STRESS PERIOD    7
    17 TOTAL ITERATIONS

 OUTPUT CONTROL FOR STRESS PERIOD    7   TIME STEP   2
    SAVE BUDGET
 UBDSV1 SAVING "         STORAGE" ON UNIT  70 AT TIME STEP  2, STRESS PERIOD   7
 UBDSV2 SAVING "   CONSTANT HEAD" ON UNIT  70 AT TIME STEP  2, STRESS PERIOD   7
 UBDSV1 SAVING "FLOW RIGHT FACE " ON UNIT  70 AT TIME STEP  2, STRESS PERIOD   7
 UBDSV1 SAVING "FLOW FRONT FACE " ON UNIT  70 AT TIME STEP  2, STRESS PERIOD   7
 UBDSV1 SAVING "FLOW LOWER FACE " ON UNIT  70 AT TIME STEP  2, STRESS PERIOD   7
 UBDSV4 SAVING " HEAD DEP BOUNDS" ON UNIT  70 AT TIME STEP  2, STRESS PERIOD   7
 UBUDSV SAVING "    UZF INFILTR." ON UNIT 61 AT TIME STEP  2, STRESS PERIOD    7
 UBUDSV SAVING "    UZF RECHARGE" ON UNIT 61 AT TIME STEP  2, STRESS PERIOD    7
 UBDSV3 SAVING "    UZF RECHARGE" ON UNIT  70 AT TIME STEP  2, STRESS PERIOD   7
 UBUDSV SAVING " SURFACE LEAKAGE" ON UNIT 61 AT TIME STEP  2, STRESS PERIOD    7
 UBDSV3 SAVING " SURFACE LEAKAGE" ON UNIT  70 AT TIME STEP  2, STRESS PERIOD   7


UNSATURATED ZONE PACKAGE VOLUMETRIC BUDGET FOR  TIME STEP    2 STRESS PERIOD    7
  ------------------------------------------------------------------------------



     CUMULATIVE VOLUMES      L**3       RATES FOR THIS TIME STEP      L**3/T
     ------------------                 ------------------------

           IN:                                      IN:
           ---                                      ---
        INFILTRATION =      562421.8429          INFILTRATION =        1000.0001

          OUT:                                     OUT:
          ----                                     ----
              UZF ET =       0.0000E+00                UZF ET =       0.0000E+00
        UZF RECHARGE =      165448.1565          UZF RECHARGE =         802.7125

            IN - OUT =      396973.6865              IN - OUT =         197.2875

          STORAGE:                                 STORAGE:
          --------                                 --------
      STORAGE CHANGE =      396965.2527        STORAGE CHANGE =         197.5516

 PERCENT DISCREPANCY IS DIFFERENCE BETWEEN IN-OUT MINUS CHANGE IN STORAGE
 DIVIDED BY THE AVERAGE OF IN AND OUT TIMES 100

 PERCENT DISCREPANCY =           0.00     PERCENT DISCREPANCY =          -0.03






 UBDSV2 SAVING "  STREAM LEAKAGE" ON UNIT  70 AT TIME STEP  2, STRESS PERIOD   7



 UBDSV4 SAVING "             MNW" ON UNIT  70 AT TIME STEP  2, STRESS PERIOD   7
 UBDSV4 SAVING "      FARM WELLS" ON UNIT  70 AT TIME STEP  2, STRESS PERIOD   7
 UBDSV3 SAVING "FARM  NET  RECH." ON UNIT  70 AT TIME STEP  2, STRESS PERIOD   7
1
  VOLUMETRIC BUDGET FOR ENTIRE MODEL AT END OF TIME STEP  2 IN STRESS PERIOD   7
  ------------------------------------------------------------------------------

     CUMULATIVE VOLUMES      L**3       RATES FOR THIS TIME STEP      L**3/T
     ------------------                 ------------------------

           IN:                                      IN:
           ---                                      ---
             STORAGE =     5360661.5000               STORAGE =       16546.8887
       CONSTANT HEAD =           0.0000         CONSTANT HEAD =           0.0000
     HEAD DEP BOUNDS =     1077622.3750       HEAD DEP BOUNDS =        6979.8467
        UZF RECHARGE =      165448.1562          UZF RECHARGE =         802.7125
               GW ET =           0.0000                 GW ET =           0.0000
     SURFACE LEAKAGE =           0.0000       SURFACE LEAKAGE =           0.0000
      STREAM LEAKAGE =     2270486.0000        STREAM LEAKAGE =       13260.4375
                 MNW =       15215.1094                   MNW =          10.6062
          FARM WELLS =           0.0000            FARM WELLS =           0.0000
    FARM  NET  RECH. =     3237162.5000      FARM  NET  RECH. =       11690.3428

            TOTAL IN =    12126596.0000              TOTAL IN =       49290.8320

          OUT:                                     OUT:
          ----                                     ----
             STORAGE =      669691.0625               STORAGE =        1425.1707
       CONSTANT HEAD =           0.0000         CONSTANT HEAD =           0.0000
     HEAD DEP BOUNDS =     3864595.0000       HEAD DEP BOUNDS =       16827.1211
        UZF RECHARGE =           0.0000          UZF RECHARGE =           0.0000
               GW ET =           0.0000                 GW ET =           0.0000
     SURFACE LEAKAGE =        2831.9670       SURFACE LEAKAGE =           0.0000
      STREAM LEAKAGE =     1277619.0000        STREAM LEAKAGE =         146.3588
                 MNW =     1671609.6250                   MNW =        9195.2227
          FARM WELLS =     1996059.5000            FARM WELLS =       12341.5801
    FARM  NET  RECH. =     2644321.2500      FARM  NET  RECH. =        9358.1309

           TOTAL OUT =    12126727.0000             TOTAL OUT =       49293.5859

            IN - OUT =        -131.0000              IN - OUT =          -2.7539

 PERCENT DISCREPANCY =           0.00     PERCENT DISCREPANCY =          -0.01






          TIME SUMMARY AT END OF TIME STEP   2 IN STRESS PERIOD    7
                    SECONDS     MINUTES      HOURS       DAYS        YEARS
                    -----------------------------------------------------------
   TIME STEP LENGTH 1.31414E+06  21902.      365.04      15.210     4.16427E-02
 STRESS PERIOD TIME 2.62829E+06  43805.      730.08      30.420     8.32854E-02
         TOTAL TIME 1.83980E+07 3.06634E+05  5110.6      212.94     0.58300    
1
1
                            STRESS PERIOD NO.    8, LENGTH =   30.42000    
                            -----------------------------------------------

                              NUMBER OF TIME STEPS =     2

                               MULTIPLIER FOR DELT =     1.000

                            INITIAL TIME STEP SIZE =   15.21000    

 REUSING NON-PARAMETER GHB CELLS FROM LAST STRESS PERIOD

     92 GHB CELLS

 REUSING STREAM SEGMENT DATA FROM LAST STRESS PERIOD
 USING INFILTRATION RATE FROM PREVIOUS STRESS 
 PERIOD.CURRENT PERIOD IS:            8

 REUSING MNW7  FROM LAST STRESS PERIOD

 Parameter:  WELLS1
 WELL NO. LAYER    ROW    COL  F-WELL ID    FARM ID         QMAX         QMAXRESET       
 ----------------------------------------------------------------------------------------
       1      1      5      6          1          1      5.0000E+03      0.0000E+00
       2      1      8      6          2          1      5.0000E+03      0.0000E+00
       3      1      8      9          3          1      5.0000E+03      0.0000E+00
       4      1      5      9          4          2      3.0000E+03      0.0000E+00
       5      1      6     10          5          2      2.0000E+03      0.0000E+00
       6      1      7     11          6          2      1.0000E+03      0.0000E+00
       7      1     18      3          7          3      2.0000E+03      0.0000E+00
       8      1     21      3          8          3      4.0000E+03      0.0000E+00
       9      1     18     19          9          4      3.0000E+03      0.0000E+00
      10      1     21     19         10          4      5.0000E+03      0.0000E+00
      11      0      6      2        -11          5      5.0000E+03      1.0000E+00
      12      0      8      2        -12          5      5.0000E+03      1.0000E+00
      13      0     10      2        -13          5      5.0000E+03      1.0000E+00
      14      0      3     19        -14          6      1.0000E+04      1.0000E+00
      15      0      6     17        -15          6      6.0000E+03      1.0000E+00

 NUMBER OF ACTIVE FARM WELLS:       15

 FARM-ID  NUMBER OF WELLS PER FARM  TOTAL MAX.CAPACITY PER FARM
       1                         3                   15000.0000
       2                         3                    6000.0000
       3                         2                    6000.0000
       4                         2                    8000.0000
       5                         3                   15000.0000
       6                         2                   16000.0000
       7                         0                       0.0000
       8                         0                       0.0000
 Reading list on unit  20
 LIST SCALING FACTOR= 0.90000    
 (THE SCALE FACTOR WAS APPLIED TO FIELDS 2 - 7)
 Reading list on unit  30
 Reading list on unit  40

  REF. EVAPOTRANSPIRATION =  6.170000E-03
 Reading list on unit  50

Transpiratory and Evaporative Fractions of Crop Consumptive Use
    % Transpiration % Evap. for Precip. % Evap. for Irrig.
    1          0.000          1.000          0.500
    2          0.950          0.050          0.050
    3          0.000          1.000          1.000
    4          0.125          0.875          0.875
    5          0.927          0.073          0.000
    6          0.700          0.300          0.000
 Reading list on unit  60

FRACTIONS OF IN-EFFICIENT LOSSES TO SW-RUNOFF FROM 
     PRECIPITATION:  IRRIGATION:
    1          0.500          0.600
    2          0.400          0.300
    3          0.600          0.500
    4          0.700          0.600
    5          0.500          0.000
    6          0.300          0.000

       PRECIPITATION FLUX =  3.000000E-05

 OPENING FILE ON UNIT  99:
 NRDV.IN                                                                                                                                                                                                                                                                                                                                                                                                                                                                                                             
 READING SCALE FACTOR LIST ON UNIT  80
 FIELD     SCALE FACTOR
     1       1.0000    
     2       5.0000    
     3       1.0000    
     4       1.0000    

UNRANKED LIST OF NON-ROUTED DELIVERIES TO FARMS [L3]:
TYPE:             1

FARM-ID  VOLUME:
      1   7.500E+04
      2   7.500E+04
      3   1.000E+05
      4   5.000E+04
      5   5.000E+04
      6   1.000E+05
      7   0.000E+00
      8   0.000E+00

FARM-ID  PRIORITY RANK OF NRD-TYPE:
      1           1
      2           1
      3           1
      4           1
      5           1
      6           1
      7           1
      8           1

FARM-ID  USE-FLAG:
         0 = SUFFICIENT USE
         1 = ABSOLUTE USE (RECHARGE SURPLUS BACK INTO CANAL)
         2 = ABSOLUTE USE (INJECT SURPLUS INTO FARM-WELLS)
      1           0
      2           0
      3           0
      4           0
      5           0
      6           0
      7           0
      8           0

LIST OF NON-ROUTED DELIVERIES IN RANKED SEQUENCE [L3/T]:

FARM-ID  RATE:
      1   2.465E+03
      2   2.465E+03
      3   3.287E+03
      4   1.644E+03
      5   1.644E+03
      6   3.287E+03
      7   0.000E+00
      8   0.000E+00

FARM-ID  USE-FLAG:
         0 = SUFFICIENT USE
         1 = ABSOLUTE USE (RECHARGE SURPLUS BACK INTO CANAL)
         2 = ABSOLUTE USE (INJECT SURPLUS INTO FARM-WELLS)
      1           0
      2           0
      3           0
      4           0
      5           0
      6           0
      7           0
      8           0

FARM ALLOTMENT HEIGHT [L]:   0.200
 
 SOLVING FOR HEAD 
 TIMESTEP FLAG ... =           0           8           1           1
 TIMESTEP FLAG ... =           1           8           1           2
 TIMESTEP FLAG ... =           2           8           1           3
 TIMESTEP FLAG ... =           3           8           1           4
 TIMESTEP FLAG ... =           4           8           1           5
 TIMESTEP FLAG ... =           5           8           1           6


     6 CALLS TO PCG ROUTINE FOR TIME STEP   1 IN STRESS PERIOD    8
    27 TOTAL ITERATIONS

 OUTPUT CONTROL FOR STRESS PERIOD    8   TIME STEP   1
    SAVE BUDGET
 UBDSV1 SAVING "         STORAGE" ON UNIT  70 AT TIME STEP  1, STRESS PERIOD   8
 UBDSV2 SAVING "   CONSTANT HEAD" ON UNIT  70 AT TIME STEP  1, STRESS PERIOD   8
 UBDSV1 SAVING "FLOW RIGHT FACE " ON UNIT  70 AT TIME STEP  1, STRESS PERIOD   8
 UBDSV1 SAVING "FLOW FRONT FACE " ON UNIT  70 AT TIME STEP  1, STRESS PERIOD   8
 UBDSV1 SAVING "FLOW LOWER FACE " ON UNIT  70 AT TIME STEP  1, STRESS PERIOD   8
 UBDSV4 SAVING " HEAD DEP BOUNDS" ON UNIT  70 AT TIME STEP  1, STRESS PERIOD   8
 UBUDSV SAVING "    UZF INFILTR." ON UNIT 61 AT TIME STEP  1, STRESS PERIOD    8
 UBUDSV SAVING "    UZF RECHARGE" ON UNIT 61 AT TIME STEP  1, STRESS PERIOD    8
 UBDSV3 SAVING "    UZF RECHARGE" ON UNIT  70 AT TIME STEP  1, STRESS PERIOD   8
 UBUDSV SAVING " SURFACE LEAKAGE" ON UNIT 61 AT TIME STEP  1, STRESS PERIOD    8
 UBDSV3 SAVING " SURFACE LEAKAGE" ON UNIT  70 AT TIME STEP  1, STRESS PERIOD   8
 UBDSV2 SAVING "  STREAM LEAKAGE" ON UNIT  70 AT TIME STEP  1, STRESS PERIOD   8



 UBDSV4 SAVING "             MNW" ON UNIT  70 AT TIME STEP  1, STRESS PERIOD   8
 UBDSV4 SAVING "      FARM WELLS" ON UNIT  70 AT TIME STEP  1, STRESS PERIOD   8
 UBDSV3 SAVING "FARM  NET  RECH." ON UNIT  70 AT TIME STEP  1, STRESS PERIOD   8
 
 SOLVING FOR HEAD 
 TIMESTEP FLAG ... =           6           8           2           1
 TIMESTEP FLAG ... =           7           8           2           2
 TIMESTEP FLAG ... =           8           8           2           3
 TIMESTEP FLAG ... =           9           8           2           4
     4 CALLS TO PCG ROUTINE FOR TIME STEP   2 IN STRESS PERIOD    8
    14 TOTAL ITERATIONS

 OUTPUT CONTROL FOR STRESS PERIOD    8   TIME STEP   2
    SAVE BUDGET
 UBDSV1 SAVING "         STORAGE" ON UNIT  70 AT TIME STEP  2, STRESS PERIOD   8
 UBDSV2 SAVING "   CONSTANT HEAD" ON UNIT  70 AT TIME STEP  2, STRESS PERIOD   8
 UBDSV1 SAVING "FLOW RIGHT FACE " ON UNIT  70 AT TIME STEP  2, STRESS PERIOD   8
 UBDSV1 SAVING "FLOW FRONT FACE " ON UNIT  70 AT TIME STEP  2, STRESS PERIOD   8
 UBDSV1 SAVING "FLOW LOWER FACE " ON UNIT  70 AT TIME STEP  2, STRESS PERIOD   8
 UBDSV4 SAVING " HEAD DEP BOUNDS" ON UNIT  70 AT TIME STEP  2, STRESS PERIOD   8
 UBUDSV SAVING "    UZF INFILTR." ON UNIT 61 AT TIME STEP  2, STRESS PERIOD    8
 UBUDSV SAVING "    UZF RECHARGE" ON UNIT 61 AT TIME STEP  2, STRESS PERIOD    8
 UBDSV3 SAVING "    UZF RECHARGE" ON UNIT  70 AT TIME STEP  2, STRESS PERIOD   8
 UBUDSV SAVING " SURFACE LEAKAGE" ON UNIT 61 AT TIME STEP  2, STRESS PERIOD    8
 UBDSV3 SAVING " SURFACE LEAKAGE" ON UNIT  70 AT TIME STEP  2, STRESS PERIOD   8


UNSATURATED ZONE PACKAGE VOLUMETRIC BUDGET FOR  TIME STEP    2 STRESS PERIOD    8
  ------------------------------------------------------------------------------



     CUMULATIVE VOLUMES      L**3       RATES FOR THIS TIME STEP      L**3/T
     ------------------                 ------------------------

           IN:                                      IN:
           ---                                      ---
        INFILTRATION =      592841.8449          INFILTRATION =        1000.0001

          OUT:                                     OUT:
          ----                                     ----
              UZF ET =       0.0000E+00                UZF ET =       0.0000E+00
        UZF RECHARGE =      215282.8497          UZF RECHARGE =        1791.9228

            IN - OUT =      377558.9952              IN - OUT =        -791.9228

          STORAGE:                                 STORAGE:
          --------                                 --------
      STORAGE CHANGE =      377556.7003        STORAGE CHANGE =        -791.7827

 PERCENT DISCREPANCY IS DIFFERENCE BETWEEN IN-OUT MINUS CHANGE IN STORAGE
 DIVIDED BY THE AVERAGE OF IN AND OUT TIMES 100

 PERCENT DISCREPANCY =           0.00     PERCENT DISCREPANCY =          -0.01






 UBDSV2 SAVING "  STREAM LEAKAGE" ON UNIT  70 AT TIME STEP  2, STRESS PERIOD   8



 UBDSV4 SAVING "             MNW" ON UNIT  70 AT TIME STEP  2, STRESS PERIOD   8
 UBDSV4 SAVING "      FARM WELLS" ON UNIT  70 AT TIME STEP  2, STRESS PERIOD   8
 UBDSV3 SAVING "FARM  NET  RECH." ON UNIT  70 AT TIME STEP  2, STRESS PERIOD   8
1
  VOLUMETRIC BUDGET FOR ENTIRE MODEL AT END OF TIME STEP  2 IN STRESS PERIOD   8
  ------------------------------------------------------------------------------

     CUMULATIVE VOLUMES      L**3       RATES FOR THIS TIME STEP      L**3/T
     ------------------                 ------------------------

           IN:                                      IN:
           ---                                      ---
             STORAGE =     5697808.5000               STORAGE =       10239.2549
       CONSTANT HEAD =           0.0000         CONSTANT HEAD =           0.0000
     HEAD DEP BOUNDS =     1291828.2500       HEAD DEP BOUNDS =        7059.4653
        UZF RECHARGE =      215282.8438          UZF RECHARGE =        1791.9227
               GW ET =           0.0000                 GW ET =           0.0000
     SURFACE LEAKAGE =           0.0000       SURFACE LEAKAGE =           0.0000
      STREAM LEAKAGE =     2676145.0000        STREAM LEAKAGE =       13440.6357
                 MNW =       15752.4707                   MNW =          19.6601
          FARM WELLS =           0.0000            FARM WELLS =           0.0000
    FARM  NET  RECH. =     3563284.0000      FARM  NET  RECH. =       10877.5498

            TOTAL IN =    13460101.0000              TOTAL IN =       43428.4883

          OUT:                                     OUT:
          ----                                     ----
             STORAGE =      687353.5625               STORAGE =         280.4348
       CONSTANT HEAD =           0.0000         CONSTANT HEAD =           0.0000
     HEAD DEP BOUNDS =     4374973.0000       HEAD DEP BOUNDS =       16760.4375
        UZF RECHARGE =           0.0000          UZF RECHARGE =           0.0000
               GW ET =           0.0000                 GW ET =           0.0000
     SURFACE LEAKAGE =        2831.9670       SURFACE LEAKAGE =           0.0000
      STREAM LEAKAGE =     1281236.6250        STREAM LEAKAGE =         114.3848
                 MNW =     1924475.1250                   MNW =        8314.4727
          FARM WELLS =     2300828.2500            FARM WELLS =       10153.7852
    FARM  NET  RECH. =     2888571.7500      FARM  NET  RECH. =        7807.5371

           TOTAL OUT =    13460270.0000             TOTAL OUT =       43431.0547

            IN - OUT =        -169.0000              IN - OUT =          -2.5664

 PERCENT DISCREPANCY =           0.00     PERCENT DISCREPANCY =          -0.01






          TIME SUMMARY AT END OF TIME STEP   2 IN STRESS PERIOD    8
                    SECONDS     MINUTES      HOURS       DAYS        YEARS
                    -----------------------------------------------------------
   TIME STEP LENGTH 1.31414E+06  21902.      365.04      15.210     4.16427E-02
 STRESS PERIOD TIME 2.62829E+06  43805.      730.08      30.420     8.32854E-02
         TOTAL TIME 2.10263E+07 3.50438E+05  5840.6      243.36     0.66628    
1
1
                            STRESS PERIOD NO.    9, LENGTH =   30.42000    
                            -----------------------------------------------

                              NUMBER OF TIME STEPS =     2

                               MULTIPLIER FOR DELT =     1.000

                            INITIAL TIME STEP SIZE =   15.21000    

 REUSING NON-PARAMETER GHB CELLS FROM LAST STRESS PERIOD

     92 GHB CELLS

 REUSING STREAM SEGMENT DATA FROM LAST STRESS PERIOD
 USING INFILTRATION RATE FROM PREVIOUS STRESS 
 PERIOD.CURRENT PERIOD IS:            9

 REUSING MNW7  FROM LAST STRESS PERIOD

 Parameter:  WELLS1
 WELL NO. LAYER    ROW    COL  F-WELL ID    FARM ID         QMAX         QMAXRESET       
 ----------------------------------------------------------------------------------------
       1      1      5      6          1          1      5.0000E+03      0.0000E+00
       2      1      8      6          2          1      5.0000E+03      0.0000E+00
       3      1      8      9          3          1      5.0000E+03      0.0000E+00
       4      1      5      9          4          2      3.0000E+03      0.0000E+00
       5      1      6     10          5          2      2.0000E+03      0.0000E+00
       6      1      7     11          6          2      1.0000E+03      0.0000E+00
       7      1     18      3          7          3      2.0000E+03      0.0000E+00
       8      1     21      3          8          3      4.0000E+03      0.0000E+00
       9      1     18     19          9          4      3.0000E+03      0.0000E+00
      10      1     21     19         10          4      5.0000E+03      0.0000E+00
      11      0      6      2        -11          5      5.0000E+03      1.0000E+00
      12      0      8      2        -12          5      5.0000E+03      1.0000E+00
      13      0     10      2        -13          5      5.0000E+03      1.0000E+00
      14      0      3     19        -14          6      1.0000E+04      1.0000E+00
      15      0      6     17        -15          6      6.0000E+03      1.0000E+00

 NUMBER OF ACTIVE FARM WELLS:       15

 FARM-ID  NUMBER OF WELLS PER FARM  TOTAL MAX.CAPACITY PER FARM
       1                         3                   15000.0000
       2                         3                    6000.0000
       3                         2                    6000.0000
       4                         2                    8000.0000
       5                         3                   15000.0000
       6                         2                   16000.0000
       7                         0                       0.0000
       8                         0                       0.0000
 Reading list on unit  20
 LIST SCALING FACTOR= 0.90000    
 (THE SCALE FACTOR WAS APPLIED TO FIELDS 2 - 7)
 Reading list on unit  30
 Reading list on unit  40

  REF. EVAPOTRANSPIRATION =  4.840000E-03
 Reading list on unit  50

Transpiratory and Evaporative Fractions of Crop Consumptive Use
    % Transpiration % Evap. for Precip. % Evap. for Irrig.
    1          0.000          1.000          0.500
    2          0.950          0.050          0.050
    3          0.661          0.339          0.339
    4          0.125          0.875          0.875
    5          0.927          0.073          0.000
    6          0.500          0.500          0.000
 Reading list on unit  60

FRACTIONS OF IN-EFFICIENT LOSSES TO SW-RUNOFF FROM 
     PRECIPITATION:  IRRIGATION:
    1          0.500          0.600
    2          0.400          0.300
    3          0.600          0.500
    4          0.700          0.600
    5          0.500          0.000
    6          0.300          0.000

       PRECIPITATION FLUX =  8.000000E-05

 OPENING FILE ON UNIT  99:
 NRDV.IN                                                                                                                                                                                                                                                                                                                                                                                                                                                                                                             
 READING SCALE FACTOR LIST ON UNIT  80
 FIELD     SCALE FACTOR
     1       1.0000    
     2       4.0000    
     3       1.0000    
     4       1.0000    

UNRANKED LIST OF NON-ROUTED DELIVERIES TO FARMS [L3]:
TYPE:             1

FARM-ID  VOLUME:
      1   6.000E+04
      2   6.000E+04
      3   8.000E+04
      4   4.000E+04
      5   4.000E+04
      6   8.000E+04
      7   0.000E+00
      8   0.000E+00

FARM-ID  PRIORITY RANK OF NRD-TYPE:
      1           1
      2           1
      3           1
      4           1
      5           1
      6           1
      7           1
      8           1

FARM-ID  USE-FLAG:
         0 = SUFFICIENT USE
         1 = ABSOLUTE USE (RECHARGE SURPLUS BACK INTO CANAL)
         2 = ABSOLUTE USE (INJECT SURPLUS INTO FARM-WELLS)
      1           0
      2           0
      3           0
      4           0
      5           0
      6           0
      7           0
      8           0

LIST OF NON-ROUTED DELIVERIES IN RANKED SEQUENCE [L3/T]:

FARM-ID  RATE:
      1   1.972E+03
      2   1.972E+03
      3   2.630E+03
      4   1.315E+03
      5   1.315E+03
      6   2.630E+03
      7   0.000E+00
      8   0.000E+00

FARM-ID  USE-FLAG:
         0 = SUFFICIENT USE
         1 = ABSOLUTE USE (RECHARGE SURPLUS BACK INTO CANAL)
         2 = ABSOLUTE USE (INJECT SURPLUS INTO FARM-WELLS)
      1           0
      2           0
      3           0
      4           0
      5           0
      6           0
      7           0
      8           0

FARM ALLOTMENT HEIGHT [L]:   0.075
 
 SOLVING FOR HEAD 
 TIMESTEP FLAG ... =           0           9           1           1
 TIMESTEP FLAG ... =           1           9           1           2
 TIMESTEP FLAG ... =           2           9           1           3
 TIMESTEP FLAG ... =           3           9           1           4
 TIMESTEP FLAG ... =           4           9           1           5
 TIMESTEP FLAG ... =           5           9           1           6
 TIMESTEP FLAG ... =           6           9           1           7
 TIMESTEP FLAG ... =           7           9           1           8


     8 CALLS TO PCG ROUTINE FOR TIME STEP   1 IN STRESS PERIOD    9
    32 TOTAL ITERATIONS

 OUTPUT CONTROL FOR STRESS PERIOD    9   TIME STEP   1
    SAVE BUDGET
 UBDSV1 SAVING "         STORAGE" ON UNIT  70 AT TIME STEP  1, STRESS PERIOD   9
 UBDSV2 SAVING "   CONSTANT HEAD" ON UNIT  70 AT TIME STEP  1, STRESS PERIOD   9
 UBDSV1 SAVING "FLOW RIGHT FACE " ON UNIT  70 AT TIME STEP  1, STRESS PERIOD   9
 UBDSV1 SAVING "FLOW FRONT FACE " ON UNIT  70 AT TIME STEP  1, STRESS PERIOD   9
 UBDSV1 SAVING "FLOW LOWER FACE " ON UNIT  70 AT TIME STEP  1, STRESS PERIOD   9
 UBDSV4 SAVING " HEAD DEP BOUNDS" ON UNIT  70 AT TIME STEP  1, STRESS PERIOD   9
 UBUDSV SAVING "    UZF INFILTR." ON UNIT 61 AT TIME STEP  1, STRESS PERIOD    9
 UBUDSV SAVING "    UZF RECHARGE" ON UNIT 61 AT TIME STEP  1, STRESS PERIOD    9
 UBDSV3 SAVING "    UZF RECHARGE" ON UNIT  70 AT TIME STEP  1, STRESS PERIOD   9
 UBUDSV SAVING " SURFACE LEAKAGE" ON UNIT 61 AT TIME STEP  1, STRESS PERIOD    9
 UBDSV3 SAVING " SURFACE LEAKAGE" ON UNIT  70 AT TIME STEP  1, STRESS PERIOD   9
 UBDSV2 SAVING "  STREAM LEAKAGE" ON UNIT  70 AT TIME STEP  1, STRESS PERIOD   9



 UBDSV4 SAVING "             MNW" ON UNIT  70 AT TIME STEP  1, STRESS PERIOD   9
 UBDSV4 SAVING "      FARM WELLS" ON UNIT  70 AT TIME STEP  1, STRESS PERIOD   9
 UBDSV3 SAVING "FARM  NET  RECH." ON UNIT  70 AT TIME STEP  1, STRESS PERIOD   9
 
 SOLVING FOR HEAD 
 TIMESTEP FLAG ... =           8           9           2           1
 TIMESTEP FLAG ... =           9           9           2           2
 TIMESTEP FLAG ... =          10           9           2           3
 TIMESTEP FLAG ... =          11           9           2           4
 TIMESTEP FLAG ... =          12           9           2           5
 TIMESTEP FLAG ... =          13           9           2           6
     6 CALLS TO PCG ROUTINE FOR TIME STEP   2 IN STRESS PERIOD    9
    22 TOTAL ITERATIONS

 OUTPUT CONTROL FOR STRESS PERIOD    9   TIME STEP   2
    PRINT BUDGET
    SAVE HEAD FOR ALL LAYERS
    SAVE BUDGET
 UBDSV1 SAVING "         STORAGE" ON UNIT  70 AT TIME STEP  2, STRESS PERIOD   9
 UBDSV2 SAVING "   CONSTANT HEAD" ON UNIT  70 AT TIME STEP  2, STRESS PERIOD   9
 UBDSV1 SAVING "FLOW RIGHT FACE " ON UNIT  70 AT TIME STEP  2, STRESS PERIOD   9
 UBDSV1 SAVING "FLOW FRONT FACE " ON UNIT  70 AT TIME STEP  2, STRESS PERIOD   9
 UBDSV1 SAVING "FLOW LOWER FACE " ON UNIT  70 AT TIME STEP  2, STRESS PERIOD   9
 UBDSV4 SAVING " HEAD DEP BOUNDS" ON UNIT  70 AT TIME STEP  2, STRESS PERIOD   9
 UBUDSV SAVING "    UZF INFILTR." ON UNIT 61 AT TIME STEP  2, STRESS PERIOD    9
 UBUDSV SAVING "    UZF RECHARGE" ON UNIT 61 AT TIME STEP  2, STRESS PERIOD    9
 UBDSV3 SAVING "    UZF RECHARGE" ON UNIT  70 AT TIME STEP  2, STRESS PERIOD   9
 UBUDSV SAVING " SURFACE LEAKAGE" ON UNIT 61 AT TIME STEP  2, STRESS PERIOD    9
 UBDSV3 SAVING " SURFACE LEAKAGE" ON UNIT  70 AT TIME STEP  2, STRESS PERIOD   9


UNSATURATED ZONE PACKAGE VOLUMETRIC BUDGET FOR  TIME STEP    2 STRESS PERIOD    9
  ------------------------------------------------------------------------------



     CUMULATIVE VOLUMES      L**3       RATES FOR THIS TIME STEP      L**3/T
     ------------------                 ------------------------

           IN:                                      IN:
           ---                                      ---
        INFILTRATION =      647718.9894          INFILTRATION =        1803.9824

          OUT:                                     OUT:
          ----                                     ----
              UZF ET =       0.0000E+00                UZF ET =       0.0000E+00
        UZF RECHARGE =      254719.2036          UZF RECHARGE =        1190.4389

            IN - OUT =      392999.7858              IN - OUT =         613.5435

          STORAGE:                                 STORAGE:
          --------                                 --------
      STORAGE CHANGE =      392997.1633        STORAGE CHANGE =         613.5242

 PERCENT DISCREPANCY IS DIFFERENCE BETWEEN IN-OUT MINUS CHANGE IN STORAGE
 DIVIDED BY THE AVERAGE OF IN AND OUT TIMES 100

 PERCENT DISCREPANCY =           0.00     PERCENT DISCREPANCY =           0.00






 UBDSV2 SAVING "  STREAM LEAKAGE" ON UNIT  70 AT TIME STEP  2, STRESS PERIOD   9



 UBDSV4 SAVING "             MNW" ON UNIT  70 AT TIME STEP  2, STRESS PERIOD   9
 UBDSV4 SAVING "      FARM WELLS" ON UNIT  70 AT TIME STEP  2, STRESS PERIOD   9
 UBDSV3 SAVING "FARM  NET  RECH." ON UNIT  70 AT TIME STEP  2, STRESS PERIOD   9

 HEAD WILL BE SAVED ON UNIT   22 AT END OF TIME STEP   2, STRESS PERIOD    9
1
  VOLUMETRIC BUDGET FOR ENTIRE MODEL AT END OF TIME STEP  2 IN STRESS PERIOD   9
  ------------------------------------------------------------------------------

     CUMULATIVE VOLUMES      L**3       RATES FOR THIS TIME STEP      L**3/T
     ------------------                 ------------------------

           IN:                                      IN:
           ---                                      ---
             STORAGE =     6153505.0000               STORAGE =       14884.1162
       CONSTANT HEAD =           0.0000         CONSTANT HEAD =           0.0000
     HEAD DEP BOUNDS =     1510474.8750       HEAD DEP BOUNDS =        7234.2305
        UZF RECHARGE =      254719.2031          UZF RECHARGE =        1190.4391
               GW ET =           0.0000                 GW ET =           0.0000
     SURFACE LEAKAGE =           0.0000       SURFACE LEAKAGE =           0.0000
      STREAM LEAKAGE =     3105287.0000        STREAM LEAKAGE =       14174.8193
                 MNW =       15752.4707                   MNW =           0.0000
          FARM WELLS =           0.0000            FARM WELLS =           0.0000
    FARM  NET  RECH. =     3900244.2500      FARM  NET  RECH. =       11241.5791

            TOTAL IN =    14939982.0000              TOTAL IN =       48725.1836

          OUT:                                     OUT:
          ----                                     ----
             STORAGE =      705166.2500               STORAGE =         260.0935
       CONSTANT HEAD =           0.0000         CONSTANT HEAD =           0.0000
     HEAD DEP BOUNDS =     4882348.5000       HEAD DEP BOUNDS =       16644.3750
        UZF RECHARGE =           0.0000          UZF RECHARGE =           0.0000
               GW ET =           0.0000                 GW ET =           0.0000
     SURFACE LEAKAGE =        2831.9670       SURFACE LEAKAGE =           0.0000
      STREAM LEAKAGE =     1284982.2500        STREAM LEAKAGE =         126.2493
                 MNW =     2246770.0000                   MNW =       10961.4990
          FARM WELLS =     2749307.5000            FARM WELLS =       14835.3672
    FARM  NET  RECH. =     3068769.0000      FARM  NET  RECH. =        5899.0088

           TOTAL OUT =    14940175.0000             TOTAL OUT =       48726.5938

            IN - OUT =        -193.0000              IN - OUT =          -1.4102

 PERCENT DISCREPANCY =           0.00     PERCENT DISCREPANCY =           0.00






          TIME SUMMARY AT END OF TIME STEP   2 IN STRESS PERIOD    9
                    SECONDS     MINUTES      HOURS       DAYS        YEARS
                    -----------------------------------------------------------
   TIME STEP LENGTH 1.31414E+06  21902.      365.04      15.210     4.16427E-02
 STRESS PERIOD TIME 2.62829E+06  43805.      730.08      30.420     8.32854E-02
         TOTAL TIME 2.36546E+07 3.94243E+05  6570.7      273.78     0.74957    
1
1
                            STRESS PERIOD NO.   10, LENGTH =   30.42000    
                            -----------------------------------------------

                              NUMBER OF TIME STEPS =     2

                               MULTIPLIER FOR DELT =     1.000

                            INITIAL TIME STEP SIZE =   15.21000    

 REUSING NON-PARAMETER GHB CELLS FROM LAST STRESS PERIOD

     92 GHB CELLS

 REUSING STREAM SEGMENT DATA FROM LAST STRESS PERIOD
 USING INFILTRATION RATE FROM PREVIOUS STRESS 
 PERIOD.CURRENT PERIOD IS:           10

 REUSING MNW7  FROM LAST STRESS PERIOD

 Parameter:  WELLS1
 WELL NO. LAYER    ROW    COL  F-WELL ID    FARM ID         QMAX         QMAXRESET       
 ----------------------------------------------------------------------------------------
       1      1      5      6          1          1      5.0000E+03      0.0000E+00
       2      1      8      6          2          1      5.0000E+03      0.0000E+00
       3      1      8      9          3          1      5.0000E+03      0.0000E+00
       4      1      5      9          4          2      3.0000E+03      0.0000E+00
       5      1      6     10          5          2      2.0000E+03      0.0000E+00
       6      1      7     11          6          2      1.0000E+03      0.0000E+00
       7      1     18      3          7          3      2.0000E+03      0.0000E+00
       8      1     21      3          8          3      4.0000E+03      0.0000E+00
       9      1     18     19          9          4      3.0000E+03      0.0000E+00
      10      1     21     19         10          4      5.0000E+03      0.0000E+00
      11      0      6      2        -11          5      5.0000E+03      1.0000E+00
      12      0      8      2        -12          5      5.0000E+03      1.0000E+00
      13      0     10      2        -13          5      5.0000E+03      1.0000E+00
      14      0      3     19        -14          6      1.0000E+04      1.0000E+00
      15      0      6     17        -15          6      6.0000E+03      1.0000E+00

 NUMBER OF ACTIVE FARM WELLS:       15

 FARM-ID  NUMBER OF WELLS PER FARM  TOTAL MAX.CAPACITY PER FARM
       1                         3                   15000.0000
       2                         3                    6000.0000
       3                         2                    6000.0000
       4                         2                    8000.0000
       5                         3                   15000.0000
       6                         2                   16000.0000
       7                         0                       0.0000
       8                         0                       0.0000
 Reading list on unit  20
 LIST SCALING FACTOR= 0.80000    
 (THE SCALE FACTOR WAS APPLIED TO FIELDS 2 - 7)
 Reading list on unit  30
 Reading list on unit  40

  REF. EVAPOTRANSPIRATION =  3.490000E-03
 Reading list on unit  50

Transpiratory and Evaporative Fractions of Crop Consumptive Use
    % Transpiration % Evap. for Precip. % Evap. for Irrig.
    1          0.000          1.000          0.500
    2          0.945          0.055          0.055
    3          0.894          0.106          0.106
    4          0.125          0.875          0.875
    5          0.927          0.073          0.000
    6          0.300          0.700          0.000
 Reading list on unit  60

FRACTIONS OF IN-EFFICIENT LOSSES TO SW-RUNOFF FROM 
     PRECIPITATION:  IRRIGATION:
    1          0.500          0.600
    2          0.400          0.300
    3          0.600          0.500
    4          0.700          0.600
    5          0.500          0.000
    6          0.300          0.000

       PRECIPITATION FLUX =  3.900000E-04

 OPENING FILE ON UNIT  99:
 NRDV.IN                                                                                                                                                                                                                                                                                                                                                                                                                                                                                                             
 READING SCALE FACTOR LIST ON UNIT  80
 FIELD     SCALE FACTOR
     1       1.0000    
     2       3.0000    
     3       1.0000    
     4       1.0000    

UNRANKED LIST OF NON-ROUTED DELIVERIES TO FARMS [L3]:
TYPE:             1

FARM-ID  VOLUME:
      1   4.500E+04
      2   4.500E+04
      3   6.000E+04
      4   3.000E+04
      5   3.000E+04
      6   6.000E+04
      7   0.000E+00
      8   0.000E+00

FARM-ID  PRIORITY RANK OF NRD-TYPE:
      1           1
      2           1
      3           1
      4           1
      5           1
      6           1
      7           1
      8           1

FARM-ID  USE-FLAG:
         0 = SUFFICIENT USE
         1 = ABSOLUTE USE (RECHARGE SURPLUS BACK INTO CANAL)
         2 = ABSOLUTE USE (INJECT SURPLUS INTO FARM-WELLS)
      1           0
      2           0
      3           0
      4           0
      5           0
      6           0
      7           0
      8           0

LIST OF NON-ROUTED DELIVERIES IN RANKED SEQUENCE [L3/T]:

FARM-ID  RATE:
      1   1.479E+03
      2   1.479E+03
      3   1.972E+03
      4   9.862E+02
      5   9.862E+02
      6   1.972E+03
      7   0.000E+00
      8   0.000E+00

FARM-ID  USE-FLAG:
         0 = SUFFICIENT USE
         1 = ABSOLUTE USE (RECHARGE SURPLUS BACK INTO CANAL)
         2 = ABSOLUTE USE (INJECT SURPLUS INTO FARM-WELLS)
      1           0
      2           0
      3           0
      4           0
      5           0
      6           0
      7           0
      8           0

FARM ALLOTMENT HEIGHT [L]:   0.075
 
 SOLVING FOR HEAD 
 TIMESTEP FLAG ... =           0          10           1           1
 TIMESTEP FLAG ... =           1          10           1           2
 TIMESTEP FLAG ... =           2          10           1           3
 TIMESTEP FLAG ... =           3          10           1           4
 TIMESTEP FLAG ... =           4          10           1           5
 TIMESTEP FLAG ... =           5          10           1           6
 TIMESTEP FLAG ... =           6          10           1           7


     7 CALLS TO PCG ROUTINE FOR TIME STEP   1 IN STRESS PERIOD   10
    28 TOTAL ITERATIONS

 OUTPUT CONTROL FOR STRESS PERIOD   10   TIME STEP   1
    SAVE BUDGET
 UBDSV1 SAVING "         STORAGE" ON UNIT  70 AT TIME STEP  1, STRESS PERIOD  10
 UBDSV2 SAVING "   CONSTANT HEAD" ON UNIT  70 AT TIME STEP  1, STRESS PERIOD  10
 UBDSV1 SAVING "FLOW RIGHT FACE " ON UNIT  70 AT TIME STEP  1, STRESS PERIOD  10
 UBDSV1 SAVING "FLOW FRONT FACE " ON UNIT  70 AT TIME STEP  1, STRESS PERIOD  10
 UBDSV1 SAVING "FLOW LOWER FACE " ON UNIT  70 AT TIME STEP  1, STRESS PERIOD  10
 UBDSV4 SAVING " HEAD DEP BOUNDS" ON UNIT  70 AT TIME STEP  1, STRESS PERIOD  10
 UBUDSV SAVING "    UZF INFILTR." ON UNIT 61 AT TIME STEP  1, STRESS PERIOD   10
 UBUDSV SAVING "    UZF RECHARGE" ON UNIT 61 AT TIME STEP  1, STRESS PERIOD   10
 UBDSV3 SAVING "    UZF RECHARGE" ON UNIT  70 AT TIME STEP  1, STRESS PERIOD  10
 UBUDSV SAVING " SURFACE LEAKAGE" ON UNIT 61 AT TIME STEP  1, STRESS PERIOD   10
 UBDSV3 SAVING " SURFACE LEAKAGE" ON UNIT  70 AT TIME STEP  1, STRESS PERIOD  10
 UBDSV2 SAVING "  STREAM LEAKAGE" ON UNIT  70 AT TIME STEP  1, STRESS PERIOD  10



 UBDSV4 SAVING "             MNW" ON UNIT  70 AT TIME STEP  1, STRESS PERIOD  10
 UBDSV4 SAVING "      FARM WELLS" ON UNIT  70 AT TIME STEP  1, STRESS PERIOD  10
 UBDSV3 SAVING "FARM  NET  RECH." ON UNIT  70 AT TIME STEP  1, STRESS PERIOD  10
 
 SOLVING FOR HEAD 
 TIMESTEP FLAG ... =           7          10           2           1
 TIMESTEP FLAG ... =           8          10           2           2
 TIMESTEP FLAG ... =           9          10           2           3
 TIMESTEP FLAG ... =          10          10           2           4
 TIMESTEP FLAG ... =          11          10           2           5
 TIMESTEP FLAG ... =          12          10           2           6
     6 CALLS TO PCG ROUTINE FOR TIME STEP   2 IN STRESS PERIOD   10
    18 TOTAL ITERATIONS

 OUTPUT CONTROL FOR STRESS PERIOD   10   TIME STEP   2
    SAVE HEAD FOR ALL LAYERS
    SAVE BUDGET
 UBDSV1 SAVING "         STORAGE" ON UNIT  70 AT TIME STEP  2, STRESS PERIOD  10
 UBDSV2 SAVING "   CONSTANT HEAD" ON UNIT  70 AT TIME STEP  2, STRESS PERIOD  10
 UBDSV1 SAVING "FLOW RIGHT FACE " ON UNIT  70 AT TIME STEP  2, STRESS PERIOD  10
 UBDSV1 SAVING "FLOW FRONT FACE " ON UNIT  70 AT TIME STEP  2, STRESS PERIOD  10
 UBDSV1 SAVING "FLOW LOWER FACE " ON UNIT  70 AT TIME STEP  2, STRESS PERIOD  10
 UBDSV4 SAVING " HEAD DEP BOUNDS" ON UNIT  70 AT TIME STEP  2, STRESS PERIOD  10
 UBUDSV SAVING "    UZF INFILTR." ON UNIT 61 AT TIME STEP  2, STRESS PERIOD   10
 UBUDSV SAVING "    UZF RECHARGE" ON UNIT 61 AT TIME STEP  2, STRESS PERIOD   10
 UBDSV3 SAVING "    UZF RECHARGE" ON UNIT  70 AT TIME STEP  2, STRESS PERIOD  10
 UBUDSV SAVING " SURFACE LEAKAGE" ON UNIT 61 AT TIME STEP  2, STRESS PERIOD   10
 UBDSV3 SAVING " SURFACE LEAKAGE" ON UNIT  70 AT TIME STEP  2, STRESS PERIOD  10


UNSATURATED ZONE PACKAGE VOLUMETRIC BUDGET FOR  TIME STEP    2 STRESS PERIOD   10
  ------------------------------------------------------------------------------



     CUMULATIVE VOLUMES      L**3       RATES FOR THIS TIME STEP      L**3/T
     ------------------                 ------------------------

           IN:                                      IN:
           ---                                      ---
        INFILTRATION =      711305.9194          INFILTRATION =        2090.3001

          OUT:                                     OUT:
          ----                                     ----
              UZF ET =       0.0000E+00                UZF ET =       0.0000E+00
        UZF RECHARGE =      288021.8008          UZF RECHARGE =        1066.6823

            IN - OUT =      423284.1186              IN - OUT =        1023.6179

          STORAGE:                                 STORAGE:
          --------                                 --------
      STORAGE CHANGE =      423281.0393        STORAGE CHANGE =        1023.6086

 PERCENT DISCREPANCY IS DIFFERENCE BETWEEN IN-OUT MINUS CHANGE IN STORAGE
 DIVIDED BY THE AVERAGE OF IN AND OUT TIMES 100

 PERCENT DISCREPANCY =           0.00     PERCENT DISCREPANCY =           0.00






 UBDSV2 SAVING "  STREAM LEAKAGE" ON UNIT  70 AT TIME STEP  2, STRESS PERIOD  10



 UBDSV4 SAVING "             MNW" ON UNIT  70 AT TIME STEP  2, STRESS PERIOD  10
 UBDSV4 SAVING "      FARM WELLS" ON UNIT  70 AT TIME STEP  2, STRESS PERIOD  10
 UBDSV3 SAVING "FARM  NET  RECH." ON UNIT  70 AT TIME STEP  2, STRESS PERIOD  10

 HEAD WILL BE SAVED ON UNIT   22 AT END OF TIME STEP   2, STRESS PERIOD   10
1
  VOLUMETRIC BUDGET FOR ENTIRE MODEL AT END OF TIME STEP  2 IN STRESS PERIOD  10
  ------------------------------------------------------------------------------

     CUMULATIVE VOLUMES      L**3       RATES FOR THIS TIME STEP      L**3/T
     ------------------                 ------------------------

           IN:                                      IN:
           ---                                      ---
             STORAGE =     6451724.0000               STORAGE =        9240.8770
       CONSTANT HEAD =           0.0000         CONSTANT HEAD =           0.0000
     HEAD DEP BOUNDS =     1734277.0000       HEAD DEP BOUNDS =        7398.4604
        UZF RECHARGE =      288021.8125          UZF RECHARGE =        1066.6823
               GW ET =           0.0000                 GW ET =           0.0000
     SURFACE LEAKAGE =           0.0000       SURFACE LEAKAGE =           0.0000
      STREAM LEAKAGE =     3561815.0000        STREAM LEAKAGE =       14995.6846
                 MNW =       16163.0635                   MNW =          17.3825
          FARM WELLS =           0.0000            FARM WELLS =           0.0000
    FARM  NET  RECH. =     4289709.0000      FARM  NET  RECH. =       12844.0273

            TOTAL IN =    16341710.0000              TOTAL IN =       45563.1133

          OUT:                                     OUT:
          ----                                     ----
             STORAGE =      766028.8750               STORAGE =        1223.7043
       CONSTANT HEAD =           0.0000         CONSTANT HEAD =           0.0000
     HEAD DEP BOUNDS =     5388914.0000       HEAD DEP BOUNDS =       16650.0840
        UZF RECHARGE =           0.0000          UZF RECHARGE =           0.0000
               GW ET =           0.0000                 GW ET =           0.0000
     SURFACE LEAKAGE =        2831.9670       SURFACE LEAKAGE =           0.0000
      STREAM LEAKAGE =     1293999.7500        STREAM LEAKAGE =         369.7257
                 MNW =     2538602.7500                   MNW =        9597.3369
          FARM WELLS =     3158201.5000            FARM WELLS =       13469.9941
    FARM  NET  RECH. =     3193355.2500      FARM  NET  RECH. =        4253.4272

           TOTAL OUT =    16341935.0000             TOTAL OUT =       45564.2695

            IN - OUT =        -225.0000              IN - OUT =          -1.1562

 PERCENT DISCREPANCY =           0.00     PERCENT DISCREPANCY =           0.00






          TIME SUMMARY AT END OF TIME STEP   2 IN STRESS PERIOD   10
                    SECONDS     MINUTES      HOURS       DAYS        YEARS
                    -----------------------------------------------------------
   TIME STEP LENGTH 1.31414E+06  21902.      365.04      15.210     4.16427E-02
 STRESS PERIOD TIME 2.62829E+06  43805.      730.08      30.420     8.32854E-02
         TOTAL TIME 2.62829E+07 4.38048E+05  7300.8      304.20     0.83285    
1
1
                            STRESS PERIOD NO.   11, LENGTH =   30.42000    
                            -----------------------------------------------

                              NUMBER OF TIME STEPS =     2

                               MULTIPLIER FOR DELT =     1.000

                            INITIAL TIME STEP SIZE =   15.21000    

 REUSING NON-PARAMETER GHB CELLS FROM LAST STRESS PERIOD

     92 GHB CELLS

 REUSING STREAM SEGMENT DATA FROM LAST STRESS PERIOD
 USING INFILTRATION RATE FROM PREVIOUS STRESS 
 PERIOD.CURRENT PERIOD IS:           11

 REUSING MNW7  FROM LAST STRESS PERIOD

 Parameter:  WELLS1
 WELL NO. LAYER    ROW    COL  F-WELL ID    FARM ID         QMAX         QMAXRESET       
 ----------------------------------------------------------------------------------------
       1      1      5      6          1          1      5.0000E+03      0.0000E+00
       2      1      8      6          2          1      5.0000E+03      0.0000E+00
       3      1      8      9          3          1      5.0000E+03      0.0000E+00
       4      1      5      9          4          2      3.0000E+03      0.0000E+00
       5      1      6     10          5          2      2.0000E+03      0.0000E+00
       6      1      7     11          6          2      1.0000E+03      0.0000E+00
       7      1     18      3          7          3      2.0000E+03      0.0000E+00
       8      1     21      3          8          3      4.0000E+03      0.0000E+00
       9      1     18     19          9          4      3.0000E+03      0.0000E+00
      10      1     21     19         10          4      5.0000E+03      0.0000E+00
      11      0      6      2        -11          5      5.0000E+03      1.0000E+00
      12      0      8      2        -12          5      5.0000E+03      1.0000E+00
      13      0     10      2        -13          5      5.0000E+03      1.0000E+00
      14      0      3     19        -14          6      1.0000E+04      1.0000E+00
      15      0      6     17        -15          6      6.0000E+03      1.0000E+00

 NUMBER OF ACTIVE FARM WELLS:       15

 FARM-ID  NUMBER OF WELLS PER FARM  TOTAL MAX.CAPACITY PER FARM
       1                         3                   15000.0000
       2                         3                    6000.0000
       3                         2                    6000.0000
       4                         2                    8000.0000
       5                         3                   15000.0000
       6                         2                   16000.0000
       7                         0                       0.0000
       8                         0                       0.0000
 Reading list on unit  20
 LIST SCALING FACTOR= 0.70000    
 (THE SCALE FACTOR WAS APPLIED TO FIELDS 2 - 7)
 Reading list on unit  30
 Reading list on unit  40

  REF. EVAPOTRANSPIRATION =  1.540000E-03
 Reading list on unit  50

Transpiratory and Evaporative Fractions of Crop Consumptive Use
    % Transpiration % Evap. for Precip. % Evap. for Irrig.
    1          0.000          1.000          0.500
    2          0.000          1.000          0.350
    3          0.954          0.046          0.046
    4          0.125          0.875          0.875
    5          0.927          0.073          0.000
    6          0.200          0.800          0.000
 Reading list on unit  60

FRACTIONS OF IN-EFFICIENT LOSSES TO SW-RUNOFF FROM 
     PRECIPITATION:  IRRIGATION:
    1          0.500          0.600
    2          0.400          0.300
    3          0.600          0.500
    4          0.700          0.600
    5          0.500          0.000
    6          0.300          0.000

       PRECIPITATION FLUX =  1.490000E-03

 OPENING FILE ON UNIT  99:
 NRDV.IN                                                                                                                                                                                                                                                                                                                                                                                                                                                                                                             
 READING SCALE FACTOR LIST ON UNIT  80
 FIELD     SCALE FACTOR
     1       1.0000    
     2       2.0000    
     3       1.0000    
     4       1.0000    

UNRANKED LIST OF NON-ROUTED DELIVERIES TO FARMS [L3]:
TYPE:             1

FARM-ID  VOLUME:
      1   3.000E+04
      2   3.000E+04
      3   4.000E+04
      4   2.000E+04
      5   2.000E+04
      6   4.000E+04
      7   0.000E+00
      8   0.000E+00

FARM-ID  PRIORITY RANK OF NRD-TYPE:
      1           1
      2           1
      3           1
      4           1
      5           1
      6           1
      7           1
      8           1

FARM-ID  USE-FLAG:
         0 = SUFFICIENT USE
         1 = ABSOLUTE USE (RECHARGE SURPLUS BACK INTO CANAL)
         2 = ABSOLUTE USE (INJECT SURPLUS INTO FARM-WELLS)
      1           0
      2           0
      3           0
      4           0
      5           0
      6           0
      7           0
      8           0

LIST OF NON-ROUTED DELIVERIES IN RANKED SEQUENCE [L3/T]:

FARM-ID  RATE:
      1   9.862E+02
      2   9.862E+02
      3   1.315E+03
      4   6.575E+02
      5   6.575E+02
      6   1.315E+03
      7   0.000E+00
      8   0.000E+00

FARM-ID  USE-FLAG:
         0 = SUFFICIENT USE
         1 = ABSOLUTE USE (RECHARGE SURPLUS BACK INTO CANAL)
         2 = ABSOLUTE USE (INJECT SURPLUS INTO FARM-WELLS)
      1           0
      2           0
      3           0
      4           0
      5           0
      6           0
      7           0
      8           0

FARM ALLOTMENT HEIGHT [L]:   0.000
 
 SOLVING FOR HEAD 
 TIMESTEP FLAG ... =           0          11           1           1
 TIMESTEP FLAG ... =           1          11           1           2
 TIMESTEP FLAG ... =           2          11           1           3
 TIMESTEP FLAG ... =           3          11           1           4
 TIMESTEP FLAG ... =           4          11           1           5
 TIMESTEP FLAG ... =           5          11           1           6
 TIMESTEP FLAG ... =           6          11           1           7
 TIMESTEP FLAG ... =           7          11           1           8


     8 CALLS TO PCG ROUTINE FOR TIME STEP   1 IN STRESS PERIOD   11
    31 TOTAL ITERATIONS

 OUTPUT CONTROL FOR STRESS PERIOD   11   TIME STEP   1
    SAVE BUDGET
 UBDSV1 SAVING "         STORAGE" ON UNIT  70 AT TIME STEP  1, STRESS PERIOD  11
 UBDSV2 SAVING "   CONSTANT HEAD" ON UNIT  70 AT TIME STEP  1, STRESS PERIOD  11
 UBDSV1 SAVING "FLOW RIGHT FACE " ON UNIT  70 AT TIME STEP  1, STRESS PERIOD  11
 UBDSV1 SAVING "FLOW FRONT FACE " ON UNIT  70 AT TIME STEP  1, STRESS PERIOD  11
 UBDSV1 SAVING "FLOW LOWER FACE " ON UNIT  70 AT TIME STEP  1, STRESS PERIOD  11
 UBDSV4 SAVING " HEAD DEP BOUNDS" ON UNIT  70 AT TIME STEP  1, STRESS PERIOD  11
 UBUDSV SAVING "    UZF INFILTR." ON UNIT 61 AT TIME STEP  1, STRESS PERIOD   11
 UBUDSV SAVING "    UZF RECHARGE" ON UNIT 61 AT TIME STEP  1, STRESS PERIOD   11
 UBDSV3 SAVING "    UZF RECHARGE" ON UNIT  70 AT TIME STEP  1, STRESS PERIOD  11
 UBUDSV SAVING " SURFACE LEAKAGE" ON UNIT 61 AT TIME STEP  1, STRESS PERIOD   11
 UBDSV3 SAVING " SURFACE LEAKAGE" ON UNIT  70 AT TIME STEP  1, STRESS PERIOD  11
 UBDSV2 SAVING "  STREAM LEAKAGE" ON UNIT  70 AT TIME STEP  1, STRESS PERIOD  11



 UBDSV4 SAVING "             MNW" ON UNIT  70 AT TIME STEP  1, STRESS PERIOD  11
 UBDSV4 SAVING "      FARM WELLS" ON UNIT  70 AT TIME STEP  1, STRESS PERIOD  11
 UBDSV3 SAVING "FARM  NET  RECH." ON UNIT  70 AT TIME STEP  1, STRESS PERIOD  11
 
 SOLVING FOR HEAD 
 TIMESTEP FLAG ... =           8          11           2           1
 TIMESTEP FLAG ... =           9          11           2           2
 TIMESTEP FLAG ... =          10          11           2           3
 TIMESTEP FLAG ... =          11          11           2           4
 TIMESTEP FLAG ... =          12          11           2           5
 TIMESTEP FLAG ... =          13          11           2           6
     6 CALLS TO PCG ROUTINE FOR TIME STEP   2 IN STRESS PERIOD   11
    20 TOTAL ITERATIONS

 OUTPUT CONTROL FOR STRESS PERIOD   11   TIME STEP   2
    SAVE BUDGET
 UBDSV1 SAVING "         STORAGE" ON UNIT  70 AT TIME STEP  2, STRESS PERIOD  11
 UBDSV2 SAVING "   CONSTANT HEAD" ON UNIT  70 AT TIME STEP  2, STRESS PERIOD  11
 UBDSV1 SAVING "FLOW RIGHT FACE " ON UNIT  70 AT TIME STEP  2, STRESS PERIOD  11
 UBDSV1 SAVING "FLOW FRONT FACE " ON UNIT  70 AT TIME STEP  2, STRESS PERIOD  11
 UBDSV1 SAVING "FLOW LOWER FACE " ON UNIT  70 AT TIME STEP  2, STRESS PERIOD  11
 UBDSV4 SAVING " HEAD DEP BOUNDS" ON UNIT  70 AT TIME STEP  2, STRESS PERIOD  11
 UBUDSV SAVING "    UZF INFILTR." ON UNIT 61 AT TIME STEP  2, STRESS PERIOD   11
 UBUDSV SAVING "    UZF RECHARGE" ON UNIT 61 AT TIME STEP  2, STRESS PERIOD   11
 UBDSV3 SAVING "    UZF RECHARGE" ON UNIT  70 AT TIME STEP  2, STRESS PERIOD  11
 UBUDSV SAVING " SURFACE LEAKAGE" ON UNIT 61 AT TIME STEP  2, STRESS PERIOD   11
 UBDSV3 SAVING " SURFACE LEAKAGE" ON UNIT  70 AT TIME STEP  2, STRESS PERIOD  11


UNSATURATED ZONE PACKAGE VOLUMETRIC BUDGET FOR  TIME STEP    2 STRESS PERIOD   11
  ------------------------------------------------------------------------------



     CUMULATIVE VOLUMES      L**3       RATES FOR THIS TIME STEP      L**3/T
     ------------------                 ------------------------

           IN:                                      IN:
           ---                                      ---
        INFILTRATION =      874330.1380          INFILTRATION =        5385.9359

          OUT:                                     OUT:
          ----                                     ----
              UZF ET =       0.0000E+00                UZF ET =       0.0000E+00
        UZF RECHARGE =      347061.8608          UZF RECHARGE =        1980.4827

            IN - OUT =      527268.2772              IN - OUT =        3405.4532

          STORAGE:                                 STORAGE:
          --------                                 --------
      STORAGE CHANGE =      527256.5621        STORAGE CHANGE =        3405.2466

 PERCENT DISCREPANCY IS DIFFERENCE BETWEEN IN-OUT MINUS CHANGE IN STORAGE
 DIVIDED BY THE AVERAGE OF IN AND OUT TIMES 100

 PERCENT DISCREPANCY =           0.00     PERCENT DISCREPANCY =           0.00






 UBDSV2 SAVING "  STREAM LEAKAGE" ON UNIT  70 AT TIME STEP  2, STRESS PERIOD  11



 UBDSV4 SAVING "             MNW" ON UNIT  70 AT TIME STEP  2, STRESS PERIOD  11
 UBDSV4 SAVING "      FARM WELLS" ON UNIT  70 AT TIME STEP  2, STRESS PERIOD  11
 UBDSV3 SAVING "FARM  NET  RECH." ON UNIT  70 AT TIME STEP  2, STRESS PERIOD  11
1
  VOLUMETRIC BUDGET FOR ENTIRE MODEL AT END OF TIME STEP  2 IN STRESS PERIOD  11
  ------------------------------------------------------------------------------

     CUMULATIVE VOLUMES      L**3       RATES FOR THIS TIME STEP      L**3/T
     ------------------                 ------------------------

           IN:                                      IN:
           ---                                      ---
             STORAGE =     6471252.5000               STORAGE =         100.5967
       CONSTANT HEAD =           0.0000         CONSTANT HEAD =           0.0000
     HEAD DEP BOUNDS =     1948664.0000       HEAD DEP BOUNDS =        6936.5576
        UZF RECHARGE =      347061.8750          UZF RECHARGE =        1980.4827
               GW ET =           0.0000                 GW ET =           0.0000
     SURFACE LEAKAGE =           0.0000       SURFACE LEAKAGE =           0.0000
      STREAM LEAKAGE =     4087997.0000        STREAM LEAKAGE =       16724.8203
                 MNW =       18924.9160                   MNW =          96.2251
          FARM WELLS =           0.0000            FARM WELLS =           0.0000
    FARM  NET  RECH. =     4679213.0000      FARM  NET  RECH. =       12797.0264

            TOTAL IN =    17553112.0000              TOTAL IN =       38635.7070

          OUT:                                     OUT:
          ----                                     ----
             STORAGE =     1357540.5000               STORAGE =       17793.5430
       CONSTANT HEAD =           0.0000         CONSTANT HEAD =           0.0000
     HEAD DEP BOUNDS =     5905142.5000       HEAD DEP BOUNDS =       17066.3789
        UZF RECHARGE =           0.0000          UZF RECHARGE =           0.0000
               GW ET =           0.0000                 GW ET =           0.0000
     SURFACE LEAKAGE =        2831.9670       SURFACE LEAKAGE =           0.0000
      STREAM LEAKAGE =     1320877.5000        STREAM LEAKAGE =        1073.1964
                 MNW =     2541364.5000                   MNW =          96.2251
          FARM WELLS =     3158201.5000            FARM WELLS =           0.0000
    FARM  NET  RECH. =     3267306.2500      FARM  NET  RECH. =        2603.2302

           TOTAL OUT =    17553264.0000             TOTAL OUT =       38632.5742

            IN - OUT =        -152.0000              IN - OUT =           3.1328

 PERCENT DISCREPANCY =           0.00     PERCENT DISCREPANCY =           0.01






          TIME SUMMARY AT END OF TIME STEP   2 IN STRESS PERIOD   11
                    SECONDS     MINUTES      HOURS       DAYS        YEARS
                    -----------------------------------------------------------
   TIME STEP LENGTH 1.31414E+06  21902.      365.04      15.210     4.16427E-02
 STRESS PERIOD TIME 2.62829E+06  43805.      730.08      30.420     8.32854E-02
         TOTAL TIME 2.89112E+07 4.81853E+05  8030.9      334.62     0.91614    
1
1
                            STRESS PERIOD NO.   12, LENGTH =   30.42000    
                            -----------------------------------------------

                              NUMBER OF TIME STEPS =     2

                               MULTIPLIER FOR DELT =     1.000

                            INITIAL TIME STEP SIZE =   15.21000    

 REUSING NON-PARAMETER GHB CELLS FROM LAST STRESS PERIOD

     92 GHB CELLS

 REUSING STREAM SEGMENT DATA FROM LAST STRESS PERIOD
 USING INFILTRATION RATE FROM PREVIOUS STRESS 
 PERIOD.CURRENT PERIOD IS:           12

 REUSING MNW7  FROM LAST STRESS PERIOD

 Parameter:  WELLS1
 WELL NO. LAYER    ROW    COL  F-WELL ID    FARM ID         QMAX         QMAXRESET       
 ----------------------------------------------------------------------------------------
       1      1      5      6          1          1      5.0000E+03      0.0000E+00
       2      1      8      6          2          1      5.0000E+03      0.0000E+00
       3      1      8      9          3          1      5.0000E+03      0.0000E+00
       4      1      5      9          4          2      3.0000E+03      0.0000E+00
       5      1      6     10          5          2      2.0000E+03      0.0000E+00
       6      1      7     11          6          2      1.0000E+03      0.0000E+00
       7      1     18      3          7          3      2.0000E+03      0.0000E+00
       8      1     21      3          8          3      4.0000E+03      0.0000E+00
       9      1     18     19          9          4      3.0000E+03      0.0000E+00
      10      1     21     19         10          4      5.0000E+03      0.0000E+00
      11      0      6      2        -11          5      5.0000E+03      1.0000E+00
      12      0      8      2        -12          5      5.0000E+03      1.0000E+00
      13      0     10      2        -13          5      5.0000E+03      1.0000E+00
      14      0      3     19        -14          6      1.0000E+04      1.0000E+00
      15      0      6     17        -15          6      6.0000E+03      1.0000E+00

 NUMBER OF ACTIVE FARM WELLS:       15

 FARM-ID  NUMBER OF WELLS PER FARM  TOTAL MAX.CAPACITY PER FARM
       1                         3                   15000.0000
       2                         3                    6000.0000
       3                         2                    6000.0000
       4                         2                    8000.0000
       5                         3                   15000.0000
       6                         2                   16000.0000
       7                         0                       0.0000
       8                         0                       0.0000
 Reading list on unit  20
 LIST SCALING FACTOR= 0.60000    
 (THE SCALE FACTOR WAS APPLIED TO FIELDS 2 - 7)
 Reading list on unit  30
 Reading list on unit  40

  REF. EVAPOTRANSPIRATION =  9.600000E-04
 Reading list on unit  50

Transpiratory and Evaporative Fractions of Crop Consumptive Use
    % Transpiration % Evap. for Precip. % Evap. for Irrig.
    1          0.000          1.000          0.500
    2          0.000          1.000          0.350
    3          0.957          0.043          0.043
    4          0.125          0.875          0.875
    5          0.926          0.074          0.000
    6          0.200          0.800          0.000
 Reading list on unit  60

FRACTIONS OF IN-EFFICIENT LOSSES TO SW-RUNOFF FROM 
     PRECIPITATION:  IRRIGATION:
    1          0.500          0.600
    2          0.400          0.300
    3          0.600          0.500
    4          0.700          0.600
    5          0.830          0.000
    6          0.730          0.000

       PRECIPITATION FLUX =  2.100000E-03

 OPENING FILE ON UNIT  99:
 NRDV.IN                                                                                                                                                                                                                                                                                                                                                                                                                                                                                                             
 READING SCALE FACTOR LIST ON UNIT  80
 FIELD     SCALE FACTOR
     1       1.0000    
     2       1.0000    
     3       1.0000    
     4       1.0000    

UNRANKED LIST OF NON-ROUTED DELIVERIES TO FARMS [L3]:
TYPE:             1

FARM-ID  VOLUME:
      1   1.500E+04
      2   1.500E+04
      3   2.000E+04
      4   1.000E+04
      5   1.000E+04
      6   2.000E+04
      7   0.000E+00
      8   0.000E+00

FARM-ID  PRIORITY RANK OF NRD-TYPE:
      1           1
      2           1
      3           1
      4           1
      5           1
      6           1
      7           1
      8           1

FARM-ID  USE-FLAG:
         0 = SUFFICIENT USE
         1 = ABSOLUTE USE (RECHARGE SURPLUS BACK INTO CANAL)
         2 = ABSOLUTE USE (INJECT SURPLUS INTO FARM-WELLS)
      1           0
      2           0
      3           0
      4           0
      5           0
      6           0
      7           0
      8           0

LIST OF NON-ROUTED DELIVERIES IN RANKED SEQUENCE [L3/T]:

FARM-ID  RATE:
      1   4.931E+02
      2   4.931E+02
      3   6.575E+02
      4   3.287E+02
      5   3.287E+02
      6   6.575E+02
      7   0.000E+00
      8   0.000E+00

FARM-ID  USE-FLAG:
         0 = SUFFICIENT USE
         1 = ABSOLUTE USE (RECHARGE SURPLUS BACK INTO CANAL)
         2 = ABSOLUTE USE (INJECT SURPLUS INTO FARM-WELLS)
      1           0
      2           0
      3           0
      4           0
      5           0
      6           0
      7           0
      8           0

FARM ALLOTMENT HEIGHT [L]:   0.000
 
 SOLVING FOR HEAD 
 TIMESTEP FLAG ... =           0          12           1           1
 TIMESTEP FLAG ... =           1          12           1           2
 TIMESTEP FLAG ... =           2          12           1           3
 TIMESTEP FLAG ... =           3          12           1           4
 TIMESTEP FLAG ... =           4          12           1           5
 TIMESTEP FLAG ... =           5          12           1           6
 TIMESTEP FLAG ... =           6          12           1           7
 TIMESTEP FLAG ... =           7          12           1           8


     8 CALLS TO PCG ROUTINE FOR TIME STEP   1 IN STRESS PERIOD   12
    31 TOTAL ITERATIONS

 OUTPUT CONTROL FOR STRESS PERIOD   12   TIME STEP   1
    SAVE BUDGET
 UBDSV1 SAVING "         STORAGE" ON UNIT  70 AT TIME STEP  1, STRESS PERIOD  12
 UBDSV2 SAVING "   CONSTANT HEAD" ON UNIT  70 AT TIME STEP  1, STRESS PERIOD  12
 UBDSV1 SAVING "FLOW RIGHT FACE " ON UNIT  70 AT TIME STEP  1, STRESS PERIOD  12
 UBDSV1 SAVING "FLOW FRONT FACE " ON UNIT  70 AT TIME STEP  1, STRESS PERIOD  12
 UBDSV1 SAVING "FLOW LOWER FACE " ON UNIT  70 AT TIME STEP  1, STRESS PERIOD  12
 UBDSV4 SAVING " HEAD DEP BOUNDS" ON UNIT  70 AT TIME STEP  1, STRESS PERIOD  12
 UBUDSV SAVING "    UZF INFILTR." ON UNIT 61 AT TIME STEP  1, STRESS PERIOD   12
 UBUDSV SAVING "    UZF RECHARGE" ON UNIT 61 AT TIME STEP  1, STRESS PERIOD   12
 UBDSV3 SAVING "    UZF RECHARGE" ON UNIT  70 AT TIME STEP  1, STRESS PERIOD  12
 UBUDSV SAVING " SURFACE LEAKAGE" ON UNIT 61 AT TIME STEP  1, STRESS PERIOD   12
 UBDSV3 SAVING " SURFACE LEAKAGE" ON UNIT  70 AT TIME STEP  1, STRESS PERIOD  12
 UBDSV2 SAVING "  STREAM LEAKAGE" ON UNIT  70 AT TIME STEP  1, STRESS PERIOD  12



 UBDSV4 SAVING "             MNW" ON UNIT  70 AT TIME STEP  1, STRESS PERIOD  12
 UBDSV4 SAVING "      FARM WELLS" ON UNIT  70 AT TIME STEP  1, STRESS PERIOD  12
 UBDSV3 SAVING "FARM  NET  RECH." ON UNIT  70 AT TIME STEP  1, STRESS PERIOD  12
 
 SOLVING FOR HEAD 
 TIMESTEP FLAG ... =           8          12           2           1
 TIMESTEP FLAG ... =           9          12           2           2
 TIMESTEP FLAG ... =          10          12           2           3
 TIMESTEP FLAG ... =          11          12           2           4
 TIMESTEP FLAG ... =          12          12           2           5
 TIMESTEP FLAG ... =          13          12           2           6
 TIMESTEP FLAG ... =          14          12           2           7
 TIMESTEP FLAG ... =          15          12           2           8
     8 CALLS TO PCG ROUTINE FOR TIME STEP   2 IN STRESS PERIOD   12
    26 TOTAL ITERATIONS

 OUTPUT CONTROL FOR STRESS PERIOD   12   TIME STEP   2
    PRINT BUDGET
    SAVE HEAD FOR ALL LAYERS
    SAVE BUDGET
 UBDSV1 SAVING "         STORAGE" ON UNIT  70 AT TIME STEP  2, STRESS PERIOD  12
 UBDSV2 SAVING "   CONSTANT HEAD" ON UNIT  70 AT TIME STEP  2, STRESS PERIOD  12
 UBDSV1 SAVING "FLOW RIGHT FACE " ON UNIT  70 AT TIME STEP  2, STRESS PERIOD  12
 UBDSV1 SAVING "FLOW FRONT FACE " ON UNIT  70 AT TIME STEP  2, STRESS PERIOD  12
 UBDSV1 SAVING "FLOW LOWER FACE " ON UNIT  70 AT TIME STEP  2, STRESS PERIOD  12
 UBDSV4 SAVING " HEAD DEP BOUNDS" ON UNIT  70 AT TIME STEP  2, STRESS PERIOD  12
 UBUDSV SAVING "    UZF INFILTR." ON UNIT 61 AT TIME STEP  2, STRESS PERIOD   12
 UBUDSV SAVING "    UZF RECHARGE" ON UNIT 61 AT TIME STEP  2, STRESS PERIOD   12
 UBDSV3 SAVING "    UZF RECHARGE" ON UNIT  70 AT TIME STEP  2, STRESS PERIOD  12
 UBUDSV SAVING " SURFACE LEAKAGE" ON UNIT 61 AT TIME STEP  2, STRESS PERIOD   12
 UBDSV3 SAVING " SURFACE LEAKAGE" ON UNIT  70 AT TIME STEP  2, STRESS PERIOD  12


UNSATURATED ZONE PACKAGE VOLUMETRIC BUDGET FOR  TIME STEP    2 STRESS PERIOD   12
  ------------------------------------------------------------------------------



     CUMULATIVE VOLUMES      L**3       RATES FOR THIS TIME STEP      L**3/T
     ------------------                 ------------------------

           IN:                                      IN:
           ---                                      ---
        INFILTRATION =     1035789.0224          INFILTRATION =        5312.5904

          OUT:                                     OUT:
          ----                                     ----
              UZF ET =       0.0000E+00                UZF ET =       0.0000E+00
        UZF RECHARGE =      565613.9309          UZF RECHARGE =        7591.9780

            IN - OUT =      470175.0914              IN - OUT =       -2279.3876

          STORAGE:                                 STORAGE:
          --------                                 --------
      STORAGE CHANGE =      470151.0653        STORAGE CHANGE =       -2279.3880

 PERCENT DISCREPANCY IS DIFFERENCE BETWEEN IN-OUT MINUS CHANGE IN STORAGE
 DIVIDED BY THE AVERAGE OF IN AND OUT TIMES 100

 PERCENT DISCREPANCY =           0.00     PERCENT DISCREPANCY =           0.00






 UBDSV2 SAVING "  STREAM LEAKAGE" ON UNIT  70 AT TIME STEP  2, STRESS PERIOD  12



 UBDSV4 SAVING "             MNW" ON UNIT  70 AT TIME STEP  2, STRESS PERIOD  12
 UBDSV4 SAVING "      FARM WELLS" ON UNIT  70 AT TIME STEP  2, STRESS PERIOD  12
 UBDSV3 SAVING "FARM  NET  RECH." ON UNIT  70 AT TIME STEP  2, STRESS PERIOD  12

 HEAD WILL BE SAVED ON UNIT   22 AT END OF TIME STEP   2, STRESS PERIOD   12
1
  VOLUMETRIC BUDGET FOR ENTIRE MODEL AT END OF TIME STEP  2 IN STRESS PERIOD  12
  ------------------------------------------------------------------------------

     CUMULATIVE VOLUMES      L**3       RATES FOR THIS TIME STEP      L**3/T
     ------------------                 ------------------------

           IN:                                      IN:
           ---                                      ---
             STORAGE =     6471252.5000               STORAGE =           0.0000
       CONSTANT HEAD =           0.0000         CONSTANT HEAD =           0.0000
     HEAD DEP BOUNDS =     2146012.0000       HEAD DEP BOUNDS =        6346.4087
        UZF RECHARGE =      565613.9375          UZF RECHARGE =        7591.9775
               GW ET =           0.0000                 GW ET =           0.0000
     SURFACE LEAKAGE =           0.0000       SURFACE LEAKAGE =           0.0000
      STREAM LEAKAGE =     4546739.0000        STREAM LEAKAGE =       13689.5439
                 MNW =       22389.8281                   MNW =         117.4915
          FARM WELLS =           0.0000            FARM WELLS =           0.0000
    FARM  NET  RECH. =     5642276.0000      FARM  NET  RECH. =       31376.0176

            TOTAL IN =    19394284.0000              TOTAL IN =       59121.4375

          OUT:                                     OUT:
          ----                                     ----
             STORAGE =     2566722.5000               STORAGE =       37644.2070
       CONSTANT HEAD =           0.0000         CONSTANT HEAD =           0.0000
     HEAD DEP BOUNDS =     6439196.5000       HEAD DEP BOUNDS =       17702.3848
        UZF RECHARGE =           0.0000          UZF RECHARGE =           0.0000
               GW ET =           0.0000                 GW ET =           0.0000
     SURFACE LEAKAGE =        2831.9670       SURFACE LEAKAGE =           0.0000
      STREAM LEAKAGE =     1390229.2500        STREAM LEAKAGE =        2730.0464
                 MNW =     2544829.2500                   MNW =         117.4915
          FARM WELLS =     3158201.5000            FARM WELLS =           0.0000
    FARM  NET  RECH. =     3292238.2500      FARM  NET  RECH. =         922.3646

           TOTAL OUT =    19394248.0000             TOTAL OUT =       59116.4961

            IN - OUT =          36.0000              IN - OUT =           4.9414

 PERCENT DISCREPANCY =           0.00     PERCENT DISCREPANCY =           0.01






          TIME SUMMARY AT END OF TIME STEP   2 IN STRESS PERIOD   12
                    SECONDS     MINUTES      HOURS       DAYS        YEARS
                    -----------------------------------------------------------
   TIME STEP LENGTH 1.31414E+06  21902.      365.04      15.210     4.16427E-02
 STRESS PERIOD TIME 2.62829E+06  43805.      730.08      30.420     8.32854E-02
         TOTAL TIME 3.15395E+07 5.25658E+05  8761.0      365.04     0.99942    
1
1
                            STRESS PERIOD NO.   13, LENGTH =   30.42000    
                            -----------------------------------------------

                              NUMBER OF TIME STEPS =     2

                               MULTIPLIER FOR DELT =     1.000

                            INITIAL TIME STEP SIZE =   15.21000    

 REUSING NON-PARAMETER GHB CELLS FROM LAST STRESS PERIOD

     92 GHB CELLS



 CLASSIFICATION & COUNT OF STREAM SEGMENTS BASED ON SOURCE OF INFLOW:

                HEADWATER     DIVERSION     RECEIVES TRIBUTARY FLOW
                ---------     ---------     -----------------------
                     3              2               6




 SLOPE FOR SEGMENT AND REACH      2     1 IS WITH  0.000E+00 LESS THAN 1.0E-07: SETTING SLOPE TO 1.0E-06 
 SLOPE FOR SEGMENT AND REACH      2     2 IS WITH  0.000E+00 LESS THAN 1.0E-07: SETTING SLOPE TO 1.0E-06 
 SLOPE FOR SEGMENT AND REACH      2     3 IS WITH  0.000E+00 LESS THAN 1.0E-07: SETTING SLOPE TO 1.0E-06 
 SLOPE FOR SEGMENT AND REACH      2     4 IS WITH  0.000E+00 LESS THAN 1.0E-07: SETTING SLOPE TO 1.0E-06 
 SLOPE FOR SEGMENT AND REACH      2     5 IS WITH  0.000E+00 LESS THAN 1.0E-07: SETTING SLOPE TO 1.0E-06 
 SLOPE FOR SEGMENT AND REACH      2     6 IS WITH  0.000E+00 LESS THAN 1.0E-07: SETTING SLOPE TO 1.0E-06 
 SLOPE FOR SEGMENT AND REACH      2     7 IS WITH  0.000E+00 LESS THAN 1.0E-07: SETTING SLOPE TO 1.0E-06 
 SLOPE FOR SEGMENT AND REACH      2     8 IS WITH  0.000E+00 LESS THAN 1.0E-07: SETTING SLOPE TO 1.0E-06 
 SLOPE FOR SEGMENT AND REACH      2     9 IS WITH  0.000E+00 LESS THAN 1.0E-07: SETTING SLOPE TO 1.0E-06 
 SLOPE FOR SEGMENT AND REACH      2    10 IS WITH  0.000E+00 LESS THAN 1.0E-07: SETTING SLOPE TO 1.0E-06 
 SLOPE FOR SEGMENT AND REACH      6     1 IS WITH  0.000E+00 LESS THAN 1.0E-07: SETTING SLOPE TO 1.0E-06 
 SLOPE FOR SEGMENT AND REACH      6     2 IS WITH  0.000E+00 LESS THAN 1.0E-07: SETTING SLOPE TO 1.0E-06 
 SLOPE FOR SEGMENT AND REACH      6     3 IS WITH  0.000E+00 LESS THAN 1.0E-07: SETTING SLOPE TO 1.0E-06 
 SLOPE FOR SEGMENT AND REACH      6     4 IS WITH  0.000E+00 LESS THAN 1.0E-07: SETTING SLOPE TO 1.0E-06 
 SLOPE FOR SEGMENT AND REACH      6     5 IS WITH  0.000E+00 LESS THAN 1.0E-07: SETTING SLOPE TO 1.0E-06 
 SLOPE FOR SEGMENT AND REACH      6     6 IS WITH  0.000E+00 LESS THAN 1.0E-07: SETTING SLOPE TO 1.0E-06 
 SLOPE FOR SEGMENT AND REACH      6     7 IS WITH  0.000E+00 LESS THAN 1.0E-07: SETTING SLOPE TO 1.0E-06 



 USING INFILTRATION RATE FROM PREVIOUS STRESS 
 PERIOD.CURRENT PERIOD IS:           13

 REUSING MNW7  FROM LAST STRESS PERIOD

 Parameter:  WELLS1
 WELL NO. LAYER    ROW    COL  F-WELL ID    FARM ID         QMAX         QMAXRESET       
 ----------------------------------------------------------------------------------------
       1      1      5      6          1          1      5.0000E+03      0.0000E+00
       2      1      8      6          2          1      5.0000E+03      0.0000E+00
       3      1      8      9          3          1      5.0000E+03      0.0000E+00
       4      1      5      9          4          2      3.0000E+03      0.0000E+00
       5      1      6     10          5          2      2.0000E+03      0.0000E+00
       6      1      7     11          6          2      1.0000E+03      0.0000E+00
       7      1     18      3          7          3      2.0000E+03      0.0000E+00
       8      1     21      3          8          3      4.0000E+03      0.0000E+00
       9      1     18     19          9          4      3.0000E+03      0.0000E+00
      10      1     21     19         10          4      5.0000E+03      0.0000E+00
      11      0      6      2        -11          5      5.0000E+03      1.0000E+00
      12      0      8      2        -12          5      5.0000E+03      1.0000E+00
      13      0     10      2        -13          5      5.0000E+03      1.0000E+00
      14      0      3     19        -14          6      1.0000E+04      1.0000E+00
      15      0      6     17        -15          6      6.0000E+03      1.0000E+00

 NUMBER OF ACTIVE FARM WELLS:       15

 FARM-ID  NUMBER OF WELLS PER FARM  TOTAL MAX.CAPACITY PER FARM
       1                         3                   15000.0000
       2                         3                    6000.0000
       3                         2                    6000.0000
       4                         2                    8000.0000
       5                         3                   15000.0000
       6                         2                   16000.0000
       7                         0                       0.0000
       8                         0                       0.0000
 Reading list on unit  20
 LIST SCALING FACTOR= 0.70000    
 (THE SCALE FACTOR WAS APPLIED TO FIELDS 2 - 7)
 Reading list on unit  30
 Reading list on unit  40

  REF. EVAPOTRANSPIRATION =  9.100000E-04
 Reading list on unit  50

Transpiratory and Evaporative Fractions of Crop Consumptive Use
    % Transpiration % Evap. for Precip. % Evap. for Irrig.
    1          0.000          1.000          0.500
    2          0.822          0.178          0.158
    3          0.957          0.043          0.043
    4          0.125          0.875          0.875
    5          0.777          0.223          0.000
    6          0.200          0.800          0.000
 Reading list on unit  60

FRACTIONS OF IN-EFFICIENT LOSSES TO SW-RUNOFF FROM 
     PRECIPITATION:  IRRIGATION:
    1          0.500          0.600
    2          0.400          0.300
    3          0.600          0.500
    4          0.700          0.600
    5          0.840          0.000
    6          0.740          0.000

       PRECIPITATION FLUX =  2.070000E-03

 OPENING FILE ON UNIT  99:
 NRDV.IN                                                                                                                                                                                                                                                                                                                                                                                                                                                                                                             
 READING SCALE FACTOR LIST ON UNIT  80
 FIELD     SCALE FACTOR
     1       1.0000    
     2       1.0000    
     3       1.0000    
     4       1.0000    

UNRANKED LIST OF NON-ROUTED DELIVERIES TO FARMS [L3]:
TYPE:             1

FARM-ID  VOLUME:
      1   1.500E+04
      2   1.500E+04
      3   2.000E+04
      4   1.000E+04
      5   1.000E+04
      6   2.000E+04
      7   0.000E+00
      8   0.000E+00

FARM-ID  PRIORITY RANK OF NRD-TYPE:
      1           1
      2           1
      3           1
      4           1
      5           1
      6           1
      7           1
      8           1

FARM-ID  USE-FLAG:
         0 = SUFFICIENT USE
         1 = ABSOLUTE USE (RECHARGE SURPLUS BACK INTO CANAL)
         2 = ABSOLUTE USE (INJECT SURPLUS INTO FARM-WELLS)
      1           0
      2           0
      3           0
      4           0
      5           0
      6           0
      7           0
      8           0

LIST OF NON-ROUTED DELIVERIES IN RANKED SEQUENCE [L3/T]:

FARM-ID  RATE:
      1   4.931E+02
      2   4.931E+02
      3   6.575E+02
      4   3.287E+02
      5   3.287E+02
      6   6.575E+02
      7   0.000E+00
      8   0.000E+00

FARM-ID  USE-FLAG:
         0 = SUFFICIENT USE
         1 = ABSOLUTE USE (RECHARGE SURPLUS BACK INTO CANAL)
         2 = ABSOLUTE USE (INJECT SURPLUS INTO FARM-WELLS)
      1           0
      2           0
      3           0
      4           0
      5           0
      6           0
      7           0
      8           0

FARM ALLOTMENT HEIGHT [L]:   0.000
 
 SOLVING FOR HEAD 
 TIMESTEP FLAG ... =           0          13           1           1
 TIMESTEP FLAG ... =           1          13           1           2
 TIMESTEP FLAG ... =           2          13           1           3
 TIMESTEP FLAG ... =           3          13           1           4
 TIMESTEP FLAG ... =           4          13           1           5
 TIMESTEP FLAG ... =           5          13           1           6
 TIMESTEP FLAG ... =           6          13           1           7
 TIMESTEP FLAG ... =           7          13           1           8


     8 CALLS TO PCG ROUTINE FOR TIME STEP   1 IN STRESS PERIOD   13
    29 TOTAL ITERATIONS

 OUTPUT CONTROL FOR STRESS PERIOD   13   TIME STEP   1
    SAVE BUDGET
 UBDSV1 SAVING "         STORAGE" ON UNIT  70 AT TIME STEP  1, STRESS PERIOD  13
 UBDSV2 SAVING "   CONSTANT HEAD" ON UNIT  70 AT TIME STEP  1, STRESS PERIOD  13
 UBDSV1 SAVING "FLOW RIGHT FACE " ON UNIT  70 AT TIME STEP  1, STRESS PERIOD  13
 UBDSV1 SAVING "FLOW FRONT FACE " ON UNIT  70 AT TIME STEP  1, STRESS PERIOD  13
 UBDSV1 SAVING "FLOW LOWER FACE " ON UNIT  70 AT TIME STEP  1, STRESS PERIOD  13
 UBDSV4 SAVING " HEAD DEP BOUNDS" ON UNIT  70 AT TIME STEP  1, STRESS PERIOD  13
 UBUDSV SAVING "    UZF INFILTR." ON UNIT 61 AT TIME STEP  1, STRESS PERIOD   13
 UBUDSV SAVING "    UZF RECHARGE" ON UNIT 61 AT TIME STEP  1, STRESS PERIOD   13
 UBDSV3 SAVING "    UZF RECHARGE" ON UNIT  70 AT TIME STEP  1, STRESS PERIOD  13
 UBUDSV SAVING " SURFACE LEAKAGE" ON UNIT 61 AT TIME STEP  1, STRESS PERIOD   13
 UBDSV3 SAVING " SURFACE LEAKAGE" ON UNIT  70 AT TIME STEP  1, STRESS PERIOD  13
 UBDSV2 SAVING "  STREAM LEAKAGE" ON UNIT  70 AT TIME STEP  1, STRESS PERIOD  13



 UBDSV4 SAVING "             MNW" ON UNIT  70 AT TIME STEP  1, STRESS PERIOD  13
 UBDSV4 SAVING "      FARM WELLS" ON UNIT  70 AT TIME STEP  1, STRESS PERIOD  13
 UBDSV3 SAVING "FARM  NET  RECH." ON UNIT  70 AT TIME STEP  1, STRESS PERIOD  13
 
 SOLVING FOR HEAD 
 TIMESTEP FLAG ... =           8          13           2           1
 TIMESTEP FLAG ... =           9          13           2           2
 TIMESTEP FLAG ... =          10          13           2           3
 TIMESTEP FLAG ... =          11          13           2           4
 TIMESTEP FLAG ... =          12          13           2           5
 TIMESTEP FLAG ... =          13          13           2           6
 TIMESTEP FLAG ... =          14          13           2           7
     7 CALLS TO PCG ROUTINE FOR TIME STEP   2 IN STRESS PERIOD   13
    22 TOTAL ITERATIONS

 OUTPUT CONTROL FOR STRESS PERIOD   13   TIME STEP   2
    SAVE BUDGET
 UBDSV1 SAVING "         STORAGE" ON UNIT  70 AT TIME STEP  2, STRESS PERIOD  13
 UBDSV2 SAVING "   CONSTANT HEAD" ON UNIT  70 AT TIME STEP  2, STRESS PERIOD  13
 UBDSV1 SAVING "FLOW RIGHT FACE " ON UNIT  70 AT TIME STEP  2, STRESS PERIOD  13
 UBDSV1 SAVING "FLOW FRONT FACE " ON UNIT  70 AT TIME STEP  2, STRESS PERIOD  13
 UBDSV1 SAVING "FLOW LOWER FACE " ON UNIT  70 AT TIME STEP  2, STRESS PERIOD  13
 UBDSV4 SAVING " HEAD DEP BOUNDS" ON UNIT  70 AT TIME STEP  2, STRESS PERIOD  13
 UBUDSV SAVING "    UZF INFILTR." ON UNIT 61 AT TIME STEP  2, STRESS PERIOD   13
 UBUDSV SAVING "    UZF RECHARGE" ON UNIT 61 AT TIME STEP  2, STRESS PERIOD   13
 UBDSV3 SAVING "    UZF RECHARGE" ON UNIT  70 AT TIME STEP  2, STRESS PERIOD  13
 UBUDSV SAVING " SURFACE LEAKAGE" ON UNIT 61 AT TIME STEP  2, STRESS PERIOD   13
 UBDSV3 SAVING " SURFACE LEAKAGE" ON UNIT  70 AT TIME STEP  2, STRESS PERIOD  13


UNSATURATED ZONE PACKAGE VOLUMETRIC BUDGET FOR  TIME STEP    2 STRESS PERIOD   13
  ------------------------------------------------------------------------------



     CUMULATIVE VOLUMES      L**3       RATES FOR THIS TIME STEP      L**3/T
     ------------------                 ------------------------

           IN:                                      IN:
           ---                                      ---
        INFILTRATION =     1193556.3058          INFILTRATION =        5186.6909

          OUT:                                     OUT:
          ----                                     ----
              UZF ET =       0.0000E+00                UZF ET =       0.0000E+00
        UZF RECHARGE =      764729.5850          UZF RECHARGE =        6187.2704

            IN - OUT =      428826.7208              IN - OUT =       -1000.5795

          STORAGE:                                 STORAGE:
          --------                                 --------
      STORAGE CHANGE =      428782.1347        STORAGE CHANGE =       -1001.1444

 PERCENT DISCREPANCY IS DIFFERENCE BETWEEN IN-OUT MINUS CHANGE IN STORAGE
 DIVIDED BY THE AVERAGE OF IN AND OUT TIMES 100

 PERCENT DISCREPANCY =           0.00     PERCENT DISCREPANCY =           0.01






 UBDSV2 SAVING "  STREAM LEAKAGE" ON UNIT  70 AT TIME STEP  2, STRESS PERIOD  13



 UBDSV4 SAVING "             MNW" ON UNIT  70 AT TIME STEP  2, STRESS PERIOD  13
 UBDSV4 SAVING "      FARM WELLS" ON UNIT  70 AT TIME STEP  2, STRESS PERIOD  13
 UBDSV3 SAVING "FARM  NET  RECH." ON UNIT  70 AT TIME STEP  2, STRESS PERIOD  13
1
  VOLUMETRIC BUDGET FOR ENTIRE MODEL AT END OF TIME STEP  2 IN STRESS PERIOD  13
  ------------------------------------------------------------------------------

     CUMULATIVE VOLUMES      L**3       RATES FOR THIS TIME STEP      L**3/T
     ------------------                 ------------------------

           IN:                                      IN:
           ---                                      ---
             STORAGE =     6471252.5000               STORAGE =           0.0000
       CONSTANT HEAD =           0.0000         CONSTANT HEAD =           0.0000
     HEAD DEP BOUNDS =     2327956.0000       HEAD DEP BOUNDS =        5867.3774
        UZF RECHARGE =      764729.5625          UZF RECHARGE =        6187.2686
               GW ET =           0.0000                 GW ET =           0.0000
     SURFACE LEAKAGE =           0.0000       SURFACE LEAKAGE =           0.0000
      STREAM LEAKAGE =     4873030.0000        STREAM LEAKAGE =       10136.3506
                 MNW =       26133.5957                   MNW =         124.3514
          FARM WELLS =           0.0000            FARM WELLS =           0.0000
    FARM  NET  RECH. =     6572004.0000      FARM  NET  RECH. =       30303.3203

            TOTAL IN =    21035106.0000              TOTAL IN =       52618.6680

          OUT:                                     OUT:
          ----                                     ----
             STORAGE =     3513479.0000               STORAGE =       29360.4004
       CONSTANT HEAD =           0.0000         CONSTANT HEAD =           0.0000
     HEAD DEP BOUNDS =     6988122.0000       HEAD DEP BOUNDS =       18137.8574
        UZF RECHARGE =           0.0000          UZF RECHARGE =           0.0000
               GW ET =           0.0000                 GW ET =           0.0000
     SURFACE LEAKAGE =        2831.9670       SURFACE LEAKAGE =           0.0000
      STREAM LEAKAGE =     1518793.7500        STREAM LEAKAGE =        4589.4609
                 MNW =     2548573.2500                   MNW =         124.3514
          FARM WELLS =     3158201.5000            FARM WELLS =           0.0000
    FARM  NET  RECH. =     3304946.7500      FARM  NET  RECH. =         402.5426

           TOTAL OUT =    21034948.0000             TOTAL OUT =       52614.6133

            IN - OUT =         158.0000              IN - OUT =           4.0547

 PERCENT DISCREPANCY =           0.00     PERCENT DISCREPANCY =           0.01






          TIME SUMMARY AT END OF TIME STEP   2 IN STRESS PERIOD   13
                    SECONDS     MINUTES      HOURS       DAYS        YEARS
                    -----------------------------------------------------------
   TIME STEP LENGTH 1.31414E+06  21902.      365.04      15.210     4.16427E-02
 STRESS PERIOD TIME 2.62829E+06  43805.      730.08      30.420     8.32854E-02
         TOTAL TIME 3.41677E+07 5.69462E+05  9491.0      395.46      1.0827    
1
1
                            STRESS PERIOD NO.   14, LENGTH =   30.42000    
                            -----------------------------------------------

                              NUMBER OF TIME STEPS =     2

                               MULTIPLIER FOR DELT =     1.000

                            INITIAL TIME STEP SIZE =   15.21000    

 REUSING NON-PARAMETER GHB CELLS FROM LAST STRESS PERIOD

     92 GHB CELLS

 REUSING STREAM SEGMENT DATA FROM LAST STRESS PERIOD
 USING INFILTRATION RATE FROM PREVIOUS STRESS 
 PERIOD.CURRENT PERIOD IS:           14

 REUSING MNW7  FROM LAST STRESS PERIOD

 Parameter:  WELLS1
 WELL NO. LAYER    ROW    COL  F-WELL ID    FARM ID         QMAX         QMAXRESET       
 ----------------------------------------------------------------------------------------
       1      1      5      6          1          1      5.0000E+03      0.0000E+00
       2      1      8      6          2          1      5.0000E+03      0.0000E+00
       3      1      8      9          3          1      5.0000E+03      0.0000E+00
       4      1      5      9          4          2      3.0000E+03      0.0000E+00
       5      1      6     10          5          2      2.0000E+03      0.0000E+00
       6      1      7     11          6          2      1.0000E+03      0.0000E+00
       7      1     18      3          7          3      2.0000E+03      0.0000E+00
       8      1     21      3          8          3      4.0000E+03      0.0000E+00
       9      1     18     19          9          4      3.0000E+03      0.0000E+00
      10      1     21     19         10          4      5.0000E+03      0.0000E+00
      11      0      6      2        -11          5      5.0000E+03      1.0000E+00
      12      0      8      2        -12          5      5.0000E+03      1.0000E+00
      13      0     10      2        -13          5      5.0000E+03      1.0000E+00
      14      0      3     19        -14          6      1.0000E+04      1.0000E+00
      15      0      6     17        -15          6      6.0000E+03      1.0000E+00

 NUMBER OF ACTIVE FARM WELLS:       15

 FARM-ID  NUMBER OF WELLS PER FARM  TOTAL MAX.CAPACITY PER FARM
       1                         3                   15000.0000
       2                         3                    6000.0000
       3                         2                    6000.0000
       4                         2                    8000.0000
       5                         3                   15000.0000
       6                         2                   16000.0000
       7                         0                       0.0000
       8                         0                       0.0000
 Reading list on unit  20
 LIST SCALING FACTOR= 0.80000    
 (THE SCALE FACTOR WAS APPLIED TO FIELDS 2 - 7)
 Reading list on unit  30
 Reading list on unit  40

  REF. EVAPOTRANSPIRATION =  1.500000E-03
 Reading list on unit  50

Transpiratory and Evaporative Fractions of Crop Consumptive Use
    % Transpiration % Evap. for Precip. % Evap. for Irrig.
    1          0.000          1.000          0.500
    2          0.822          0.178          0.158
    3          0.845          0.155          0.155
    4          0.125          0.875          0.875
    5          0.783          0.217          0.000
    6          0.400          0.600          0.000
 Reading list on unit  60

FRACTIONS OF IN-EFFICIENT LOSSES TO SW-RUNOFF FROM 
     PRECIPITATION:  IRRIGATION:
    1          0.500          0.600
    2          0.400          0.300
    3          0.600          0.500
    4          0.700          0.600
    5          0.850          0.000
    6          0.750          0.000

       PRECIPITATION FLUX =  2.630000E-03

 OPENING FILE ON UNIT  99:
 NRDV.IN                                                                                                                                                                                                                                                                                                                                                                                                                                                                                                             
 READING SCALE FACTOR LIST ON UNIT  80
 FIELD     SCALE FACTOR
     1       1.0000    
     2       2.0000    
     3       1.0000    
     4       1.0000    

UNRANKED LIST OF NON-ROUTED DELIVERIES TO FARMS [L3]:
TYPE:             1

FARM-ID  VOLUME:
      1   3.000E+04
      2   3.000E+04
      3   4.000E+04
      4   2.000E+04
      5   2.000E+04
      6   4.000E+04
      7   0.000E+00
      8   0.000E+00

FARM-ID  PRIORITY RANK OF NRD-TYPE:
      1           1
      2           1
      3           1
      4           1
      5           1
      6           1
      7           1
      8           1

FARM-ID  USE-FLAG:
         0 = SUFFICIENT USE
         1 = ABSOLUTE USE (RECHARGE SURPLUS BACK INTO CANAL)
         2 = ABSOLUTE USE (INJECT SURPLUS INTO FARM-WELLS)
      1           0
      2           0
      3           0
      4           0
      5           0
      6           0
      7           0
      8           0

LIST OF NON-ROUTED DELIVERIES IN RANKED SEQUENCE [L3/T]:

FARM-ID  RATE:
      1   9.862E+02
      2   9.862E+02
      3   1.315E+03
      4   6.575E+02
      5   6.575E+02
      6   1.315E+03
      7   0.000E+00
      8   0.000E+00

FARM-ID  USE-FLAG:
         0 = SUFFICIENT USE
         1 = ABSOLUTE USE (RECHARGE SURPLUS BACK INTO CANAL)
         2 = ABSOLUTE USE (INJECT SURPLUS INTO FARM-WELLS)
      1           0
      2           0
      3           0
      4           0
      5           0
      6           0
      7           0
      8           0

FARM ALLOTMENT HEIGHT [L]:   0.000
 
 SOLVING FOR HEAD 
 TIMESTEP FLAG ... =           0          14           1           1
 TIMESTEP FLAG ... =           1          14           1           2
 TIMESTEP FLAG ... =           2          14           1           3
 TIMESTEP FLAG ... =           3          14           1           4
 TIMESTEP FLAG ... =           4          14           1           5
 TIMESTEP FLAG ... =           5          14           1           6
 TIMESTEP FLAG ... =           6          14           1           7
 TIMESTEP FLAG ... =           7          14           1           8


     8 CALLS TO PCG ROUTINE FOR TIME STEP   1 IN STRESS PERIOD   14
    30 TOTAL ITERATIONS

 OUTPUT CONTROL FOR STRESS PERIOD   14   TIME STEP   1
    SAVE BUDGET
 UBDSV1 SAVING "         STORAGE" ON UNIT  70 AT TIME STEP  1, STRESS PERIOD  14
 UBDSV2 SAVING "   CONSTANT HEAD" ON UNIT  70 AT TIME STEP  1, STRESS PERIOD  14
 UBDSV1 SAVING "FLOW RIGHT FACE " ON UNIT  70 AT TIME STEP  1, STRESS PERIOD  14
 UBDSV1 SAVING "FLOW FRONT FACE " ON UNIT  70 AT TIME STEP  1, STRESS PERIOD  14
 UBDSV1 SAVING "FLOW LOWER FACE " ON UNIT  70 AT TIME STEP  1, STRESS PERIOD  14
 UBDSV4 SAVING " HEAD DEP BOUNDS" ON UNIT  70 AT TIME STEP  1, STRESS PERIOD  14
 UBUDSV SAVING "    UZF INFILTR." ON UNIT 61 AT TIME STEP  1, STRESS PERIOD   14
 UBUDSV SAVING "    UZF RECHARGE" ON UNIT 61 AT TIME STEP  1, STRESS PERIOD   14
 UBDSV3 SAVING "    UZF RECHARGE" ON UNIT  70 AT TIME STEP  1, STRESS PERIOD  14
 UBUDSV SAVING " SURFACE LEAKAGE" ON UNIT 61 AT TIME STEP  1, STRESS PERIOD   14
 UBDSV3 SAVING " SURFACE LEAKAGE" ON UNIT  70 AT TIME STEP  1, STRESS PERIOD  14
 UBDSV2 SAVING "  STREAM LEAKAGE" ON UNIT  70 AT TIME STEP  1, STRESS PERIOD  14



 UBDSV4 SAVING "             MNW" ON UNIT  70 AT TIME STEP  1, STRESS PERIOD  14
 UBDSV4 SAVING "      FARM WELLS" ON UNIT  70 AT TIME STEP  1, STRESS PERIOD  14
 UBDSV3 SAVING "FARM  NET  RECH." ON UNIT  70 AT TIME STEP  1, STRESS PERIOD  14
 
 SOLVING FOR HEAD 
 TIMESTEP FLAG ... =           8          14           2           1
 TIMESTEP FLAG ... =           9          14           2           2
 TIMESTEP FLAG ... =          10          14           2           3
 TIMESTEP FLAG ... =          11          14           2           4
 TIMESTEP FLAG ... =          12          14           2           5
 TIMESTEP FLAG ... =          13          14           2           6
 TIMESTEP FLAG ... =          14          14           2           7
 TIMESTEP FLAG ... =          15          14           2           8
     8 CALLS TO PCG ROUTINE FOR TIME STEP   2 IN STRESS PERIOD   14
    27 TOTAL ITERATIONS

 OUTPUT CONTROL FOR STRESS PERIOD   14   TIME STEP   2
    SAVE BUDGET
 UBDSV1 SAVING "         STORAGE" ON UNIT  70 AT TIME STEP  2, STRESS PERIOD  14
 UBDSV2 SAVING "   CONSTANT HEAD" ON UNIT  70 AT TIME STEP  2, STRESS PERIOD  14
 UBDSV1 SAVING "FLOW RIGHT FACE " ON UNIT  70 AT TIME STEP  2, STRESS PERIOD  14
 UBDSV1 SAVING "FLOW FRONT FACE " ON UNIT  70 AT TIME STEP  2, STRESS PERIOD  14
 UBDSV1 SAVING "FLOW LOWER FACE " ON UNIT  70 AT TIME STEP  2, STRESS PERIOD  14
 UBDSV4 SAVING " HEAD DEP BOUNDS" ON UNIT  70 AT TIME STEP  2, STRESS PERIOD  14
 UBUDSV SAVING "    UZF INFILTR." ON UNIT 61 AT TIME STEP  2, STRESS PERIOD   14
 UBUDSV SAVING "    UZF RECHARGE" ON UNIT 61 AT TIME STEP  2, STRESS PERIOD   14
 UBDSV3 SAVING "    UZF RECHARGE" ON UNIT  70 AT TIME STEP  2, STRESS PERIOD  14
 UBUDSV SAVING " SURFACE LEAKAGE" ON UNIT 61 AT TIME STEP  2, STRESS PERIOD   14
 UBDSV3 SAVING " SURFACE LEAKAGE" ON UNIT  70 AT TIME STEP  2, STRESS PERIOD  14


UNSATURATED ZONE PACKAGE VOLUMETRIC BUDGET FOR  TIME STEP    2 STRESS PERIOD   14
  ------------------------------------------------------------------------------



     CUMULATIVE VOLUMES      L**3       RATES FOR THIS TIME STEP      L**3/T
     ------------------                 ------------------------

           IN:                                      IN:
           ---                                      ---
        INFILTRATION =     1377372.7155          INFILTRATION =        5958.4399

          OUT:                                     OUT:
          ----                                     ----
              UZF ET =       0.0000E+00                UZF ET =       0.0000E+00
        UZF RECHARGE =      977152.4800          UZF RECHARGE =        7564.0710

            IN - OUT =      400220.2355              IN - OUT =       -1605.6312

          STORAGE:                                 STORAGE:
          --------                                 --------
      STORAGE CHANGE =      400174.5300        STORAGE CHANGE =       -1605.6829

 PERCENT DISCREPANCY IS DIFFERENCE BETWEEN IN-OUT MINUS CHANGE IN STORAGE
 DIVIDED BY THE AVERAGE OF IN AND OUT TIMES 100

 PERCENT DISCREPANCY =           0.00     PERCENT DISCREPANCY =           0.00






 UBDSV2 SAVING "  STREAM LEAKAGE" ON UNIT  70 AT TIME STEP  2, STRESS PERIOD  14



 UBDSV4 SAVING "             MNW" ON UNIT  70 AT TIME STEP  2, STRESS PERIOD  14
 UBDSV4 SAVING "      FARM WELLS" ON UNIT  70 AT TIME STEP  2, STRESS PERIOD  14
 UBDSV3 SAVING "FARM  NET  RECH." ON UNIT  70 AT TIME STEP  2, STRESS PERIOD  14
1
  VOLUMETRIC BUDGET FOR ENTIRE MODEL AT END OF TIME STEP  2 IN STRESS PERIOD  14
  ------------------------------------------------------------------------------

     CUMULATIVE VOLUMES      L**3       RATES FOR THIS TIME STEP      L**3/T
     ------------------                 ------------------------

           IN:                                      IN:
           ---                                      ---
             STORAGE =     6471252.5000               STORAGE =           0.0000
       CONSTANT HEAD =           0.0000         CONSTANT HEAD =           0.0000
     HEAD DEP BOUNDS =     2496092.2500       HEAD DEP BOUNDS =        5407.5083
        UZF RECHARGE =      977152.4375          UZF RECHARGE =        7564.0713
               GW ET =           0.0000                 GW ET =           0.0000
     SURFACE LEAKAGE =           0.0000       SURFACE LEAKAGE =           0.0000
      STREAM LEAKAGE =     5161434.0000        STREAM LEAKAGE =        9232.1699
                 MNW =       30082.4590                   MNW =         132.2109
          FARM WELLS =           0.0000            FARM WELLS =           0.0000
    FARM  NET  RECH. =     7592795.5000      FARM  NET  RECH. =       33226.4062

            TOTAL IN =    22728808.0000              TOTAL IN =       55562.3672

          OUT:                                     OUT:
          ----                                     ----
             STORAGE =     4407944.0000               STORAGE =       28661.0039
       CONSTANT HEAD =           0.0000         CONSTANT HEAD =           0.0000
     HEAD DEP BOUNDS =     7546168.5000       HEAD DEP BOUNDS =       18406.8906
        UZF RECHARGE =           0.0000          UZF RECHARGE =           0.0000
               GW ET =           0.0000                 GW ET =           0.0000
     SURFACE LEAKAGE =        2850.3296       SURFACE LEAKAGE =           1.0235
      STREAM LEAKAGE =     1703454.3750        STREAM LEAKAGE =        6643.4658
                 MNW =     2552522.2500                   MNW =         132.2109
          FARM WELLS =     3158201.5000            FARM WELLS =           0.0000
    FARM  NET  RECH. =     3357388.0000      FARM  NET  RECH. =        1714.7192

           TOTAL OUT =    22728528.0000             TOTAL OUT =       55559.3125

            IN - OUT =         280.0000              IN - OUT =           3.0547

 PERCENT DISCREPANCY =           0.00     PERCENT DISCREPANCY =           0.01






          TIME SUMMARY AT END OF TIME STEP   2 IN STRESS PERIOD   14
                    SECONDS     MINUTES      HOURS       DAYS        YEARS
                    -----------------------------------------------------------
   TIME STEP LENGTH 1.31414E+06  21902.      365.04      15.210     4.16427E-02
 STRESS PERIOD TIME 2.62829E+06  43805.      730.08      30.420     8.32854E-02
         TOTAL TIME 3.67960E+07 6.13267E+05  10221.      425.88      1.1660    
1
1
                            STRESS PERIOD NO.   15, LENGTH =   30.42000    
                            -----------------------------------------------

                              NUMBER OF TIME STEPS =     2

                               MULTIPLIER FOR DELT =     1.000

                            INITIAL TIME STEP SIZE =   15.21000    

 REUSING NON-PARAMETER GHB CELLS FROM LAST STRESS PERIOD

     92 GHB CELLS

 REUSING STREAM SEGMENT DATA FROM LAST STRESS PERIOD
 USING INFILTRATION RATE FROM PREVIOUS STRESS 
 PERIOD.CURRENT PERIOD IS:           15

 REUSING MNW7  FROM LAST STRESS PERIOD

 Parameter:  WELLS1
 WELL NO. LAYER    ROW    COL  F-WELL ID    FARM ID         QMAX         QMAXRESET       
 ----------------------------------------------------------------------------------------
       1      1      5      6          1          1      5.0000E+03      0.0000E+00
       2      1      8      6          2          1      5.0000E+03      0.0000E+00
       3      1      8      9          3          1      5.0000E+03      0.0000E+00
       4      1      5      9          4          2      3.0000E+03      0.0000E+00
       5      1      6     10          5          2      2.0000E+03      0.0000E+00
       6      1      7     11          6          2      1.0000E+03      0.0000E+00
       7      1     18      3          7          3      2.0000E+03      0.0000E+00
       8      1     21      3          8          3      4.0000E+03      0.0000E+00
       9      1     18     19          9          4      3.0000E+03      0.0000E+00
      10      1     21     19         10          4      5.0000E+03      0.0000E+00
      11      0      6      2        -11          5      5.0000E+03      1.0000E+00
      12      0      8      2        -12          5      5.0000E+03      1.0000E+00
      13      0     10      2        -13          5      5.0000E+03      1.0000E+00
      14      0      3     19        -14          6      1.0000E+04      1.0000E+00
      15      0      6     17        -15          6      6.0000E+03      1.0000E+00

 NUMBER OF ACTIVE FARM WELLS:       15

 FARM-ID  NUMBER OF WELLS PER FARM  TOTAL MAX.CAPACITY PER FARM
       1                         3                   15000.0000
       2                         3                    6000.0000
       3                         2                    6000.0000
       4                         2                    8000.0000
       5                         3                   15000.0000
       6                         2                   16000.0000
       7                         0                       0.0000
       8                         0                       0.0000
 Reading list on unit  20
 LIST SCALING FACTOR= 0.90000    
 (THE SCALE FACTOR WAS APPLIED TO FIELDS 2 - 7)
 Reading list on unit  30
 Reading list on unit  40

  REF. EVAPOTRANSPIRATION =  2.890000E-03
 Reading list on unit  50

Transpiratory and Evaporative Fractions of Crop Consumptive Use
    % Transpiration % Evap. for Precip. % Evap. for Irrig.
    1          0.221          0.779          0.500
    2          0.860          0.140          0.140
    3          0.000          1.000          1.000
    4          0.125          0.875          0.875
    5          0.835          0.165          0.000
    6          0.600          0.400          0.000
 Reading list on unit  60

FRACTIONS OF IN-EFFICIENT LOSSES TO SW-RUNOFF FROM 
     PRECIPITATION:  IRRIGATION:
    1          0.500          0.600
    2          0.400          0.300
    3          0.600          0.500
    4          0.700          0.600
    5          0.500          0.000
    6          0.300          0.000

       PRECIPITATION FLUX =  1.840000E-03

 OPENING FILE ON UNIT  99:
 NRDV.IN                                                                                                                                                                                                                                                                                                                                                                                                                                                                                                             
 READING SCALE FACTOR LIST ON UNIT  80
 FIELD     SCALE FACTOR
     1       1.0000    
     2       3.0000    
     3       1.0000    
     4       1.0000    

UNRANKED LIST OF NON-ROUTED DELIVERIES TO FARMS [L3]:
TYPE:             1

FARM-ID  VOLUME:
      1   4.500E+04
      2   4.500E+04
      3   6.000E+04
      4   3.000E+04
      5   3.000E+04
      6   6.000E+04
      7   0.000E+00
      8   0.000E+00

FARM-ID  PRIORITY RANK OF NRD-TYPE:
      1           1
      2           1
      3           1
      4           1
      5           1
      6           1
      7           1
      8           1

FARM-ID  USE-FLAG:
         0 = SUFFICIENT USE
         1 = ABSOLUTE USE (RECHARGE SURPLUS BACK INTO CANAL)
         2 = ABSOLUTE USE (INJECT SURPLUS INTO FARM-WELLS)
      1           0
      2           0
      3           0
      4           0
      5           0
      6           0
      7           0
      8           0

LIST OF NON-ROUTED DELIVERIES IN RANKED SEQUENCE [L3/T]:

FARM-ID  RATE:
      1   1.479E+03
      2   1.479E+03
      3   1.972E+03
      4   9.862E+02
      5   9.862E+02
      6   1.972E+03
      7   0.000E+00
      8   0.000E+00

FARM-ID  USE-FLAG:
         0 = SUFFICIENT USE
         1 = ABSOLUTE USE (RECHARGE SURPLUS BACK INTO CANAL)
         2 = ABSOLUTE USE (INJECT SURPLUS INTO FARM-WELLS)
      1           0
      2           0
      3           0
      4           0
      5           0
      6           0
      7           0
      8           0

FARM ALLOTMENT HEIGHT [L]:   0.013
 
 SOLVING FOR HEAD 
 TIMESTEP FLAG ... =           0          15           1           1
 TIMESTEP FLAG ... =           1          15           1           2
 TIMESTEP FLAG ... =           2          15           1           3
 TIMESTEP FLAG ... =           3          15           1           4
 TIMESTEP FLAG ... =           4          15           1           5
 TIMESTEP FLAG ... =           5          15           1           6
 TIMESTEP FLAG ... =           6          15           1           7
 TIMESTEP FLAG ... =           7          15           1           8


     8 CALLS TO PCG ROUTINE FOR TIME STEP   1 IN STRESS PERIOD   15
    27 TOTAL ITERATIONS

 OUTPUT CONTROL FOR STRESS PERIOD   15   TIME STEP   1
    SAVE BUDGET
 UBDSV1 SAVING "         STORAGE" ON UNIT  70 AT TIME STEP  1, STRESS PERIOD  15
 UBDSV2 SAVING "   CONSTANT HEAD" ON UNIT  70 AT TIME STEP  1, STRESS PERIOD  15
 UBDSV1 SAVING "FLOW RIGHT FACE " ON UNIT  70 AT TIME STEP  1, STRESS PERIOD  15
 UBDSV1 SAVING "FLOW FRONT FACE " ON UNIT  70 AT TIME STEP  1, STRESS PERIOD  15
 UBDSV1 SAVING "FLOW LOWER FACE " ON UNIT  70 AT TIME STEP  1, STRESS PERIOD  15
 UBDSV4 SAVING " HEAD DEP BOUNDS" ON UNIT  70 AT TIME STEP  1, STRESS PERIOD  15
 UBUDSV SAVING "    UZF INFILTR." ON UNIT 61 AT TIME STEP  1, STRESS PERIOD   15
 UBUDSV SAVING "    UZF RECHARGE" ON UNIT 61 AT TIME STEP  1, STRESS PERIOD   15
 UBDSV3 SAVING "    UZF RECHARGE" ON UNIT  70 AT TIME STEP  1, STRESS PERIOD  15
 UBUDSV SAVING " SURFACE LEAKAGE" ON UNIT 61 AT TIME STEP  1, STRESS PERIOD   15
 UBDSV3 SAVING " SURFACE LEAKAGE" ON UNIT  70 AT TIME STEP  1, STRESS PERIOD  15
 UBDSV2 SAVING "  STREAM LEAKAGE" ON UNIT  70 AT TIME STEP  1, STRESS PERIOD  15



 UBDSV4 SAVING "             MNW" ON UNIT  70 AT TIME STEP  1, STRESS PERIOD  15
 UBDSV4 SAVING "      FARM WELLS" ON UNIT  70 AT TIME STEP  1, STRESS PERIOD  15
 UBDSV3 SAVING "FARM  NET  RECH." ON UNIT  70 AT TIME STEP  1, STRESS PERIOD  15
 
 SOLVING FOR HEAD 
 TIMESTEP FLAG ... =           8          15           2           1
 TIMESTEP FLAG ... =           9          15           2           2
 TIMESTEP FLAG ... =          10          15           2           3
 TIMESTEP FLAG ... =          11          15           2           4
 TIMESTEP FLAG ... =          12          15           2           5
 TIMESTEP FLAG ... =          13          15           2           6
 TIMESTEP FLAG ... =          14          15           2           7
     7 CALLS TO PCG ROUTINE FOR TIME STEP   2 IN STRESS PERIOD   15
    22 TOTAL ITERATIONS

 OUTPUT CONTROL FOR STRESS PERIOD   15   TIME STEP   2
    PRINT BUDGET
    SAVE HEAD FOR ALL LAYERS
    SAVE BUDGET
 UBDSV1 SAVING "         STORAGE" ON UNIT  70 AT TIME STEP  2, STRESS PERIOD  15
 UBDSV2 SAVING "   CONSTANT HEAD" ON UNIT  70 AT TIME STEP  2, STRESS PERIOD  15
 UBDSV1 SAVING "FLOW RIGHT FACE " ON UNIT  70 AT TIME STEP  2, STRESS PERIOD  15
 UBDSV1 SAVING "FLOW FRONT FACE " ON UNIT  70 AT TIME STEP  2, STRESS PERIOD  15
 UBDSV1 SAVING "FLOW LOWER FACE " ON UNIT  70 AT TIME STEP  2, STRESS PERIOD  15
 UBDSV4 SAVING " HEAD DEP BOUNDS" ON UNIT  70 AT TIME STEP  2, STRESS PERIOD  15
 UBUDSV SAVING "    UZF INFILTR." ON UNIT 61 AT TIME STEP  2, STRESS PERIOD   15
 UBUDSV SAVING "    UZF RECHARGE" ON UNIT 61 AT TIME STEP  2, STRESS PERIOD   15
 UBDSV3 SAVING "    UZF RECHARGE" ON UNIT  70 AT TIME STEP  2, STRESS PERIOD  15
 UBUDSV SAVING " SURFACE LEAKAGE" ON UNIT 61 AT TIME STEP  2, STRESS PERIOD   15
 UBDSV3 SAVING " SURFACE LEAKAGE" ON UNIT  70 AT TIME STEP  2, STRESS PERIOD  15


UNSATURATED ZONE PACKAGE VOLUMETRIC BUDGET FOR  TIME STEP    2 STRESS PERIOD   15
  ------------------------------------------------------------------------------



     CUMULATIVE VOLUMES      L**3       RATES FOR THIS TIME STEP      L**3/T
     ------------------                 ------------------------

           IN:                                      IN:
           ---                                      ---
        INFILTRATION =     1572931.1355          INFILTRATION =        6503.5882

          OUT:                                     OUT:
          ----                                     ----
              UZF ET =       0.0000E+00                UZF ET =       0.0000E+00
        UZF RECHARGE =     1214971.3850          UZF RECHARGE =        8236.5473

            IN - OUT =      357959.7505              IN - OUT =       -1732.9591

          STORAGE:                                 STORAGE:
          --------                                 --------
      STORAGE CHANGE =      357897.9080        STORAGE CHANGE =       -1733.5171

 PERCENT DISCREPANCY IS DIFFERENCE BETWEEN IN-OUT MINUS CHANGE IN STORAGE
 DIVIDED BY THE AVERAGE OF IN AND OUT TIMES 100

 PERCENT DISCREPANCY =           0.00     PERCENT DISCREPANCY =           0.01






 UBDSV2 SAVING "  STREAM LEAKAGE" ON UNIT  70 AT TIME STEP  2, STRESS PERIOD  15



 UBDSV4 SAVING "             MNW" ON UNIT  70 AT TIME STEP  2, STRESS PERIOD  15
 UBDSV4 SAVING "      FARM WELLS" ON UNIT  70 AT TIME STEP  2, STRESS PERIOD  15
 UBDSV3 SAVING "FARM  NET  RECH." ON UNIT  70 AT TIME STEP  2, STRESS PERIOD  15

 HEAD WILL BE SAVED ON UNIT   22 AT END OF TIME STEP   2, STRESS PERIOD   15
1
  VOLUMETRIC BUDGET FOR ENTIRE MODEL AT END OF TIME STEP  2 IN STRESS PERIOD  15
  ------------------------------------------------------------------------------

     CUMULATIVE VOLUMES      L**3       RATES FOR THIS TIME STEP      L**3/T
     ------------------                 ------------------------

           IN:                                      IN:
           ---                                      ---
             STORAGE =     6792734.0000               STORAGE =        8383.7227
       CONSTANT HEAD =           0.0000         CONSTANT HEAD =           0.0000
     HEAD DEP BOUNDS =     2658570.2500       HEAD DEP BOUNDS =        5322.8086
        UZF RECHARGE =     1214971.3750          UZF RECHARGE =        8236.5469
               GW ET =           0.0000                 GW ET =           0.0000
     SURFACE LEAKAGE =           0.0000       SURFACE LEAKAGE =           0.0000
      STREAM LEAKAGE =     5431393.5000        STREAM LEAKAGE =        9230.9746
                 MNW =       33890.9609                   MNW =         124.0828
          FARM WELLS =           0.0000            FARM WELLS =           0.0000
    FARM  NET  RECH. =     7772667.5000      FARM  NET  RECH. =        5931.4097

            TOTAL IN =    23904226.0000              TOTAL IN =       37229.5430

          OUT:                                     OUT:
          ----                                     ----
             STORAGE =     4503673.5000               STORAGE =        2759.5723
       CONSTANT HEAD =           0.0000         CONSTANT HEAD =           0.0000
     HEAD DEP BOUNDS =     8104583.0000       HEAD DEP BOUNDS =       18339.7227
        UZF RECHARGE =           0.0000          UZF RECHARGE =           0.0000
               GW ET =           0.0000                 GW ET =           0.0000
     SURFACE LEAKAGE =        2869.4824       SURFACE LEAKAGE =           0.3237
      STREAM LEAKAGE =     1862287.1250        STREAM LEAKAGE =        4551.7593
                 MNW =     2556330.7500                   MNW =         124.0828
          FARM WELLS =     3158201.5000            FARM WELLS =           0.0000
    FARM  NET  RECH. =     3715986.7500      FARM  NET  RECH. =       11452.1865

           TOTAL OUT =    23903930.0000             TOTAL OUT =       37227.6484

            IN - OUT =         296.0000              IN - OUT =           1.8945

 PERCENT DISCREPANCY =           0.00     PERCENT DISCREPANCY =           0.01






          TIME SUMMARY AT END OF TIME STEP   2 IN STRESS PERIOD   15
                    SECONDS     MINUTES      HOURS       DAYS        YEARS
                    -----------------------------------------------------------
   TIME STEP LENGTH 1.31414E+06  21902.      365.04      15.210     4.16427E-02
 STRESS PERIOD TIME 2.62829E+06  43805.      730.08      30.420     8.32854E-02
         TOTAL TIME 3.94243E+07 6.57072E+05  10951.      456.30      1.2493    
1
1
                            STRESS PERIOD NO.   16, LENGTH =   30.42000    
                            -----------------------------------------------

                              NUMBER OF TIME STEPS =     2

                               MULTIPLIER FOR DELT =     1.000

                            INITIAL TIME STEP SIZE =   15.21000    

 REUSING NON-PARAMETER GHB CELLS FROM LAST STRESS PERIOD

     92 GHB CELLS

 REUSING STREAM SEGMENT DATA FROM LAST STRESS PERIOD
 USING INFILTRATION RATE FROM PREVIOUS STRESS 
 PERIOD.CURRENT PERIOD IS:           16

 REUSING MNW7  FROM LAST STRESS PERIOD

 Parameter:  WELLS1
 WELL NO. LAYER    ROW    COL  F-WELL ID    FARM ID         QMAX         QMAXRESET       
 ----------------------------------------------------------------------------------------
       1      1      5      6          1          1      5.0000E+03      0.0000E+00
       2      1      8      6          2          1      5.0000E+03      0.0000E+00
       3      1      8      9          3          1      5.0000E+03      0.0000E+00
       4      1      5      9          4          2      3.0000E+03      0.0000E+00
       5      1      6     10          5          2      2.0000E+03      0.0000E+00
       6      1      7     11          6          2      1.0000E+03      0.0000E+00
       7      1     18      3          7          3      2.0000E+03      0.0000E+00
       8      1     21      3          8          3      4.0000E+03      0.0000E+00
       9      1     18     19          9          4      3.0000E+03      0.0000E+00
      10      1     21     19         10          4      5.0000E+03      0.0000E+00
      11      0      6      2        -11          5      5.0000E+03      1.0000E+00
      12      0      8      2        -12          5      5.0000E+03      1.0000E+00
      13      0     10      2        -13          5      5.0000E+03      1.0000E+00
      14      0      3     19        -14          6      1.0000E+04      1.0000E+00
      15      0      6     17        -15          6      6.0000E+03      1.0000E+00

 NUMBER OF ACTIVE FARM WELLS:       15

 FARM-ID  NUMBER OF WELLS PER FARM  TOTAL MAX.CAPACITY PER FARM
       1                         3                   15000.0000
       2                         3                    6000.0000
       3                         2                    6000.0000
       4                         2                    8000.0000
       5                         3                   15000.0000
       6                         2                   16000.0000
       7                         0                       0.0000
       8                         0                       0.0000
 Reading list on unit  20
 LIST SCALING FACTOR= 0.95000    
 (THE SCALE FACTOR WAS APPLIED TO FIELDS 2 - 7)
 Reading list on unit  30
 Reading list on unit  40

  REF. EVAPOTRANSPIRATION =  4.310000E-03
 Reading list on unit  50

Transpiratory and Evaporative Fractions of Crop Consumptive Use
    % Transpiration % Evap. for Precip. % Evap. for Irrig.
    1          0.485          0.515          0.500
    2          0.908          0.092          0.092
    3          0.000          1.000          1.000
    4          0.125          0.875          0.875
    5          0.887          0.113          0.000
    6          0.700          0.300          0.000
 Reading list on unit  60

FRACTIONS OF IN-EFFICIENT LOSSES TO SW-RUNOFF FROM 
     PRECIPITATION:  IRRIGATION:
    1          0.500          0.600
    2          0.400          0.300
    3          0.600          0.500
    4          0.700          0.600
    5          0.500          0.000
    6          0.300          0.000

       PRECIPITATION FLUX =  6.100000E-04

 OPENING FILE ON UNIT  99:
 NRDV.IN                                                                                                                                                                                                                                                                                                                                                                                                                                                                                                             
 READING SCALE FACTOR LIST ON UNIT  80
 FIELD     SCALE FACTOR
     1       1.0000    
     2       4.0000    
     3       1.0000    
     4       1.0000    

UNRANKED LIST OF NON-ROUTED DELIVERIES TO FARMS [L3]:
TYPE:             1

FARM-ID  VOLUME:
      1   6.000E+04
      2   6.000E+04
      3   8.000E+04
      4   4.000E+04
      5   4.000E+04
      6   8.000E+04
      7   0.000E+00
      8   0.000E+00

FARM-ID  PRIORITY RANK OF NRD-TYPE:
      1           1
      2           1
      3           1
      4           1
      5           1
      6           1
      7           1
      8           1

FARM-ID  USE-FLAG:
         0 = SUFFICIENT USE
         1 = ABSOLUTE USE (RECHARGE SURPLUS BACK INTO CANAL)
         2 = ABSOLUTE USE (INJECT SURPLUS INTO FARM-WELLS)
      1           0
      2           0
      3           0
      4           0
      5           0
      6           0
      7           0
      8           0

LIST OF NON-ROUTED DELIVERIES IN RANKED SEQUENCE [L3/T]:

FARM-ID  RATE:
      1   1.972E+03
      2   1.972E+03
      3   2.630E+03
      4   1.315E+03
      5   1.315E+03
      6   2.630E+03
      7   0.000E+00
      8   0.000E+00

FARM-ID  USE-FLAG:
         0 = SUFFICIENT USE
         1 = ABSOLUTE USE (RECHARGE SURPLUS BACK INTO CANAL)
         2 = ABSOLUTE USE (INJECT SURPLUS INTO FARM-WELLS)
      1           0
      2           0
      3           0
      4           0
      5           0
      6           0
      7           0
      8           0

FARM ALLOTMENT HEIGHT [L]:   0.013
 
 SOLVING FOR HEAD 
 TIMESTEP FLAG ... =           0          16           1           1
 TIMESTEP FLAG ... =           1          16           1           2
 TIMESTEP FLAG ... =           2          16           1           3
 TIMESTEP FLAG ... =           3          16           1           4
 TIMESTEP FLAG ... =           4          16           1           5
 TIMESTEP FLAG ... =           5          16           1           6
 TIMESTEP FLAG ... =           6          16           1           7
 TIMESTEP FLAG ... =           7          16           1           8


     8 CALLS TO PCG ROUTINE FOR TIME STEP   1 IN STRESS PERIOD   16
    37 TOTAL ITERATIONS

 OUTPUT CONTROL FOR STRESS PERIOD   16   TIME STEP   1
    SAVE BUDGET
 UBDSV1 SAVING "         STORAGE" ON UNIT  70 AT TIME STEP  1, STRESS PERIOD  16
 UBDSV2 SAVING "   CONSTANT HEAD" ON UNIT  70 AT TIME STEP  1, STRESS PERIOD  16
 UBDSV1 SAVING "FLOW RIGHT FACE " ON UNIT  70 AT TIME STEP  1, STRESS PERIOD  16
 UBDSV1 SAVING "FLOW FRONT FACE " ON UNIT  70 AT TIME STEP  1, STRESS PERIOD  16
 UBDSV1 SAVING "FLOW LOWER FACE " ON UNIT  70 AT TIME STEP  1, STRESS PERIOD  16
 UBDSV4 SAVING " HEAD DEP BOUNDS" ON UNIT  70 AT TIME STEP  1, STRESS PERIOD  16
 UBUDSV SAVING "    UZF INFILTR." ON UNIT 61 AT TIME STEP  1, STRESS PERIOD   16
 UBUDSV SAVING "    UZF RECHARGE" ON UNIT 61 AT TIME STEP  1, STRESS PERIOD   16
 UBDSV3 SAVING "    UZF RECHARGE" ON UNIT  70 AT TIME STEP  1, STRESS PERIOD  16
 UBUDSV SAVING " SURFACE LEAKAGE" ON UNIT 61 AT TIME STEP  1, STRESS PERIOD   16
 UBDSV3 SAVING " SURFACE LEAKAGE" ON UNIT  70 AT TIME STEP  1, STRESS PERIOD  16
 UBDSV2 SAVING "  STREAM LEAKAGE" ON UNIT  70 AT TIME STEP  1, STRESS PERIOD  16



 UBDSV4 SAVING "             MNW" ON UNIT  70 AT TIME STEP  1, STRESS PERIOD  16
 UBDSV4 SAVING "      FARM WELLS" ON UNIT  70 AT TIME STEP  1, STRESS PERIOD  16
 UBDSV3 SAVING "FARM  NET  RECH." ON UNIT  70 AT TIME STEP  1, STRESS PERIOD  16
 
 SOLVING FOR HEAD 
 TIMESTEP FLAG ... =           8          16           2           1
 TIMESTEP FLAG ... =           9          16           2           2
 TIMESTEP FLAG ... =          10          16           2           3
 TIMESTEP FLAG ... =          11          16           2           4
 TIMESTEP FLAG ... =          12          16           2           5
 TIMESTEP FLAG ... =          13          16           2           6
 TIMESTEP FLAG ... =          14          16           2           7
     7 CALLS TO PCG ROUTINE FOR TIME STEP   2 IN STRESS PERIOD   16
    31 TOTAL ITERATIONS

 OUTPUT CONTROL FOR STRESS PERIOD   16   TIME STEP   2
    SAVE BUDGET
 UBDSV1 SAVING "         STORAGE" ON UNIT  70 AT TIME STEP  2, STRESS PERIOD  16
 UBDSV2 SAVING "   CONSTANT HEAD" ON UNIT  70 AT TIME STEP  2, STRESS PERIOD  16
 UBDSV1 SAVING "FLOW RIGHT FACE " ON UNIT  70 AT TIME STEP  2, STRESS PERIOD  16
 UBDSV1 SAVING "FLOW FRONT FACE " ON UNIT  70 AT TIME STEP  2, STRESS PERIOD  16
 UBDSV1 SAVING "FLOW LOWER FACE " ON UNIT  70 AT TIME STEP  2, STRESS PERIOD  16
 UBDSV4 SAVING " HEAD DEP BOUNDS" ON UNIT  70 AT TIME STEP  2, STRESS PERIOD  16
 UBUDSV SAVING "    UZF INFILTR." ON UNIT 61 AT TIME STEP  2, STRESS PERIOD   16
 UBUDSV SAVING "    UZF RECHARGE" ON UNIT 61 AT TIME STEP  2, STRESS PERIOD   16
 UBDSV3 SAVING "    UZF RECHARGE" ON UNIT  70 AT TIME STEP  2, STRESS PERIOD  16
 UBUDSV SAVING " SURFACE LEAKAGE" ON UNIT 61 AT TIME STEP  2, STRESS PERIOD   16
 UBDSV3 SAVING " SURFACE LEAKAGE" ON UNIT  70 AT TIME STEP  2, STRESS PERIOD  16


UNSATURATED ZONE PACKAGE VOLUMETRIC BUDGET FOR  TIME STEP    2 STRESS PERIOD   16
  ------------------------------------------------------------------------------



     CUMULATIVE VOLUMES      L**3       RATES FOR THIS TIME STEP      L**3/T
     ------------------                 ------------------------

           IN:                                      IN:
           ---                                      ---
        INFILTRATION =     1617560.4678          INFILTRATION =        1324.9058

          OUT:                                     OUT:
          ----                                     ----
              UZF ET =       0.0000E+00                UZF ET =       0.0000E+00
        UZF RECHARGE =     1267533.9711          UZF RECHARGE =        1149.6800

            IN - OUT =      350026.4967              IN - OUT =         175.2258

          STORAGE:                                 STORAGE:
          --------                                 --------
      STORAGE CHANGE =      349958.8711        STORAGE CHANGE =         175.0433

 PERCENT DISCREPANCY IS DIFFERENCE BETWEEN IN-OUT MINUS CHANGE IN STORAGE
 DIVIDED BY THE AVERAGE OF IN AND OUT TIMES 100

 PERCENT DISCREPANCY =           0.00     PERCENT DISCREPANCY =           0.01






 UBDSV2 SAVING "  STREAM LEAKAGE" ON UNIT  70 AT TIME STEP  2, STRESS PERIOD  16



 UBDSV4 SAVING "             MNW" ON UNIT  70 AT TIME STEP  2, STRESS PERIOD  16
 UBDSV4 SAVING "      FARM WELLS" ON UNIT  70 AT TIME STEP  2, STRESS PERIOD  16
 UBDSV3 SAVING "FARM  NET  RECH." ON UNIT  70 AT TIME STEP  2, STRESS PERIOD  16
1
  VOLUMETRIC BUDGET FOR ENTIRE MODEL AT END OF TIME STEP  2 IN STRESS PERIOD  16
  ------------------------------------------------------------------------------

     CUMULATIVE VOLUMES      L**3       RATES FOR THIS TIME STEP      L**3/T
     ------------------                 ------------------------

           IN:                                      IN:
           ---                                      ---
             STORAGE =     7710325.5000               STORAGE =       28682.6445
       CONSTANT HEAD =           0.0000         CONSTANT HEAD =           0.0000
     HEAD DEP BOUNDS =     2829374.0000       HEAD DEP BOUNDS =        5725.0459
        UZF RECHARGE =     1267534.0000          UZF RECHARGE =        1149.6799
               GW ET =           0.0000                 GW ET =           0.0000
     SURFACE LEAKAGE =           0.0000       SURFACE LEAKAGE =           0.0000
      STREAM LEAKAGE =     5761215.5000        STREAM LEAKAGE =       11274.5215
                 MNW =       33890.9609                   MNW =           0.0000
          FARM WELLS =           0.0000            FARM WELLS =           0.0000
    FARM  NET  RECH. =     7900486.5000      FARM  NET  RECH. =        4529.3110

            TOTAL IN =    25502826.0000              TOTAL IN =       51361.2031

          OUT:                                     OUT:
          ----                                     ----
             STORAGE =     4506631.0000               STORAGE =           0.5732
       CONSTANT HEAD =           0.0000         CONSTANT HEAD =           0.0000
     HEAD DEP BOUNDS =     8647769.0000       HEAD DEP BOUNDS =       17727.5176
        UZF RECHARGE =           0.0000          UZF RECHARGE =           0.0000
               GW ET =           0.0000                 GW ET =           0.0000
     SURFACE LEAKAGE =        2869.4824       SURFACE LEAKAGE =           0.0000
      STREAM LEAKAGE =     1927991.1250        STREAM LEAKAGE =        1657.0842
                 MNW =     2874445.0000                   MNW =       12021.1416
          FARM WELLS =     3391379.2500            FARM WELLS =        7806.0547
    FARM  NET  RECH. =     4151518.5000      FARM  NET  RECH. =       12151.0791

           TOTAL OUT =    25502602.0000             TOTAL OUT =       51363.4492

            IN - OUT =         224.0000              IN - OUT =          -2.2461

 PERCENT DISCREPANCY =           0.00     PERCENT DISCREPANCY =           0.00






          TIME SUMMARY AT END OF TIME STEP   2 IN STRESS PERIOD   16
                    SECONDS     MINUTES      HOURS       DAYS        YEARS
                    -----------------------------------------------------------
   TIME STEP LENGTH 1.31414E+06  21902.      365.04      15.210     4.16427E-02
 STRESS PERIOD TIME 2.62829E+06  43805.      730.08      30.420     8.32854E-02
         TOTAL TIME 4.20526E+07 7.00877E+05  11681.      486.72      1.3326    
1
1
                            STRESS PERIOD NO.   17, LENGTH =   30.42000    
                            -----------------------------------------------

                              NUMBER OF TIME STEPS =     2

                               MULTIPLIER FOR DELT =     1.000

                            INITIAL TIME STEP SIZE =   15.21000    

 REUSING NON-PARAMETER GHB CELLS FROM LAST STRESS PERIOD

     92 GHB CELLS

 REUSING STREAM SEGMENT DATA FROM LAST STRESS PERIOD
 USING INFILTRATION RATE FROM PREVIOUS STRESS 
 PERIOD.CURRENT PERIOD IS:           17

 REUSING MNW7  FROM LAST STRESS PERIOD

 Parameter:  WELLS1
 WELL NO. LAYER    ROW    COL  F-WELL ID    FARM ID         QMAX         QMAXRESET       
 ----------------------------------------------------------------------------------------
       1      1      5      6          1          1      5.0000E+03      0.0000E+00
       2      1      8      6          2          1      5.0000E+03      0.0000E+00
       3      1      8      9          3          1      5.0000E+03      0.0000E+00
       4      1      5      9          4          2      3.0000E+03      0.0000E+00
       5      1      6     10          5          2      2.0000E+03      0.0000E+00
       6      1      7     11          6          2      1.0000E+03      0.0000E+00
       7      1     18      3          7          3      2.0000E+03      0.0000E+00
       8      1     21      3          8          3      4.0000E+03      0.0000E+00
       9      1     18     19          9          4      3.0000E+03      0.0000E+00
      10      1     21     19         10          4      5.0000E+03      0.0000E+00
      11      0      6      2        -11          5      5.0000E+03      1.0000E+00
      12      0      8      2        -12          5      5.0000E+03      1.0000E+00
      13      0     10      2        -13          5      5.0000E+03      1.0000E+00
      14      0      3     19        -14          6      1.0000E+04      1.0000E+00
      15      0      6     17        -15          6      6.0000E+03      1.0000E+00

 NUMBER OF ACTIVE FARM WELLS:       15

 FARM-ID  NUMBER OF WELLS PER FARM  TOTAL MAX.CAPACITY PER FARM
       1                         3                   15000.0000
       2                         3                    6000.0000
       3                         2                    6000.0000
       4                         2                    8000.0000
       5                         3                   15000.0000
       6                         2                   16000.0000
       7                         0                       0.0000
       8                         0                       0.0000
 Reading list on unit  20
 LIST SCALING FACTOR=  1.0000    
 (THE SCALE FACTOR WAS APPLIED TO FIELDS 2 - 7)
 Reading list on unit  30
 Reading list on unit  40

  REF. EVAPOTRANSPIRATION =  5.920000E-03
 Reading list on unit  50

Transpiratory and Evaporative Fractions of Crop Consumptive Use
    % Transpiration % Evap. for Precip. % Evap. for Irrig.
    1          0.846          0.154          0.154
    2          0.940          0.060          0.060
    3          0.000          1.000          1.000
    4          0.125          0.875          0.875
    5          0.924          0.076          0.000
    6          0.800          0.200          0.000
 Reading list on unit  60

FRACTIONS OF IN-EFFICIENT LOSSES TO SW-RUNOFF FROM 
     PRECIPITATION:  IRRIGATION:
    1          0.500          0.600
    2          0.400          0.300
    3          0.600          0.500
    4          0.700          0.600
    5          0.500          0.000
    6          0.300          0.000

       PRECIPITATION FLUX =  2.900000E-04

 OPENING FILE ON UNIT  99:
 NRDV.IN                                                                                                                                                                                                                                                                                                                                                                                                                                                                                                             
 READING SCALE FACTOR LIST ON UNIT  80
 FIELD     SCALE FACTOR
     1       1.0000    
     2       5.0000    
     3       1.0000    
     4       1.0000    

UNRANKED LIST OF NON-ROUTED DELIVERIES TO FARMS [L3]:
TYPE:             1

FARM-ID  VOLUME:
      1   7.500E+04
      2   7.500E+04
      3   1.000E+05
      4   5.000E+04
      5   5.000E+04
      6   1.000E+05
      7   0.000E+00
      8   0.000E+00

FARM-ID  PRIORITY RANK OF NRD-TYPE:
      1           1
      2           1
      3           1
      4           1
      5           1
      6           1
      7           1
      8           1

FARM-ID  USE-FLAG:
         0 = SUFFICIENT USE
         1 = ABSOLUTE USE (RECHARGE SURPLUS BACK INTO CANAL)
         2 = ABSOLUTE USE (INJECT SURPLUS INTO FARM-WELLS)
      1           0
      2           0
      3           0
      4           0
      5           0
      6           0
      7           0
      8           0

LIST OF NON-ROUTED DELIVERIES IN RANKED SEQUENCE [L3/T]:

FARM-ID  RATE:
      1   2.465E+03
      2   2.465E+03
      3   3.287E+03
      4   1.644E+03
      5   1.644E+03
      6   3.287E+03
      7   0.000E+00
      8   0.000E+00

FARM-ID  USE-FLAG:
         0 = SUFFICIENT USE
         1 = ABSOLUTE USE (RECHARGE SURPLUS BACK INTO CANAL)
         2 = ABSOLUTE USE (INJECT SURPLUS INTO FARM-WELLS)
      1           0
      2           0
      3           0
      4           0
      5           0
      6           0
      7           0
      8           0

FARM ALLOTMENT HEIGHT [L]:   0.013
 
 SOLVING FOR HEAD 
 TIMESTEP FLAG ... =           0          17           1           1
 TIMESTEP FLAG ... =           1          17           1           2
 TIMESTEP FLAG ... =           2          17           1           3
 TIMESTEP FLAG ... =           3          17           1           4
 TIMESTEP FLAG ... =           4          17           1           5
 TIMESTEP FLAG ... =           5          17           1           6
 TIMESTEP FLAG ... =           6          17           1           7


     7 CALLS TO PCG ROUTINE FOR TIME STEP   1 IN STRESS PERIOD   17
    30 TOTAL ITERATIONS

 OUTPUT CONTROL FOR STRESS PERIOD   17   TIME STEP   1
    SAVE BUDGET
 UBDSV1 SAVING "         STORAGE" ON UNIT  70 AT TIME STEP  1, STRESS PERIOD  17
 UBDSV2 SAVING "   CONSTANT HEAD" ON UNIT  70 AT TIME STEP  1, STRESS PERIOD  17
 UBDSV1 SAVING "FLOW RIGHT FACE " ON UNIT  70 AT TIME STEP  1, STRESS PERIOD  17
 UBDSV1 SAVING "FLOW FRONT FACE " ON UNIT  70 AT TIME STEP  1, STRESS PERIOD  17
 UBDSV1 SAVING "FLOW LOWER FACE " ON UNIT  70 AT TIME STEP  1, STRESS PERIOD  17
 UBDSV4 SAVING " HEAD DEP BOUNDS" ON UNIT  70 AT TIME STEP  1, STRESS PERIOD  17
 UBUDSV SAVING "    UZF INFILTR." ON UNIT 61 AT TIME STEP  1, STRESS PERIOD   17
 UBUDSV SAVING "    UZF RECHARGE" ON UNIT 61 AT TIME STEP  1, STRESS PERIOD   17
 UBDSV3 SAVING "    UZF RECHARGE" ON UNIT  70 AT TIME STEP  1, STRESS PERIOD  17
 UBUDSV SAVING " SURFACE LEAKAGE" ON UNIT 61 AT TIME STEP  1, STRESS PERIOD   17
 UBDSV3 SAVING " SURFACE LEAKAGE" ON UNIT  70 AT TIME STEP  1, STRESS PERIOD  17
 UBDSV2 SAVING "  STREAM LEAKAGE" ON UNIT  70 AT TIME STEP  1, STRESS PERIOD  17



 UBDSV4 SAVING "             MNW" ON UNIT  70 AT TIME STEP  1, STRESS PERIOD  17
 UBDSV4 SAVING "      FARM WELLS" ON UNIT  70 AT TIME STEP  1, STRESS PERIOD  17
 UBDSV3 SAVING "FARM  NET  RECH." ON UNIT  70 AT TIME STEP  1, STRESS PERIOD  17
 
 SOLVING FOR HEAD 
 TIMESTEP FLAG ... =           7          17           2           1
 TIMESTEP FLAG ... =           8          17           2           2
 TIMESTEP FLAG ... =           9          17           2           3
 TIMESTEP FLAG ... =          10          17           2           4
 TIMESTEP FLAG ... =          11          17           2           5
     5 CALLS TO PCG ROUTINE FOR TIME STEP   2 IN STRESS PERIOD   17
    20 TOTAL ITERATIONS

 OUTPUT CONTROL FOR STRESS PERIOD   17   TIME STEP   2
    SAVE BUDGET
 UBDSV1 SAVING "         STORAGE" ON UNIT  70 AT TIME STEP  2, STRESS PERIOD  17
 UBDSV2 SAVING "   CONSTANT HEAD" ON UNIT  70 AT TIME STEP  2, STRESS PERIOD  17
 UBDSV1 SAVING "FLOW RIGHT FACE " ON UNIT  70 AT TIME STEP  2, STRESS PERIOD  17
 UBDSV1 SAVING "FLOW FRONT FACE " ON UNIT  70 AT TIME STEP  2, STRESS PERIOD  17
 UBDSV1 SAVING "FLOW LOWER FACE " ON UNIT  70 AT TIME STEP  2, STRESS PERIOD  17
 UBDSV4 SAVING " HEAD DEP BOUNDS" ON UNIT  70 AT TIME STEP  2, STRESS PERIOD  17
 UBUDSV SAVING "    UZF INFILTR." ON UNIT 61 AT TIME STEP  2, STRESS PERIOD   17
 UBUDSV SAVING "    UZF RECHARGE" ON UNIT 61 AT TIME STEP  2, STRESS PERIOD   17
 UBDSV3 SAVING "    UZF RECHARGE" ON UNIT  70 AT TIME STEP  2, STRESS PERIOD  17
 UBUDSV SAVING " SURFACE LEAKAGE" ON UNIT 61 AT TIME STEP  2, STRESS PERIOD   17
 UBDSV3 SAVING " SURFACE LEAKAGE" ON UNIT  70 AT TIME STEP  2, STRESS PERIOD  17


UNSATURATED ZONE PACKAGE VOLUMETRIC BUDGET FOR  TIME STEP    2 STRESS PERIOD   17
  ------------------------------------------------------------------------------



     CUMULATIVE VOLUMES      L**3       RATES FOR THIS TIME STEP      L**3/T
     ------------------                 ------------------------

           IN:                                      IN:
           ---                                      ---
        INFILTRATION =     1665247.6983          INFILTRATION =        1567.6276

          OUT:                                     OUT:
          ----                                     ----
              UZF ET =       0.0000E+00                UZF ET =       0.0000E+00
        UZF RECHARGE =     1271177.2244          UZF RECHARGE =          71.1124

            IN - OUT =      394070.4739              IN - OUT =        1496.5152

          STORAGE:                                 STORAGE:
          --------                                 --------
      STORAGE CHANGE =      394001.3294        STORAGE CHANGE =        1496.4942

 PERCENT DISCREPANCY IS DIFFERENCE BETWEEN IN-OUT MINUS CHANGE IN STORAGE
 DIVIDED BY THE AVERAGE OF IN AND OUT TIMES 100

 PERCENT DISCREPANCY =           0.00     PERCENT DISCREPANCY =           0.00






 UBDSV2 SAVING "  STREAM LEAKAGE" ON UNIT  70 AT TIME STEP  2, STRESS PERIOD  17



 UBDSV4 SAVING "             MNW" ON UNIT  70 AT TIME STEP  2, STRESS PERIOD  17
 UBDSV4 SAVING "      FARM WELLS" ON UNIT  70 AT TIME STEP  2, STRESS PERIOD  17
 UBDSV3 SAVING "FARM  NET  RECH." ON UNIT  70 AT TIME STEP  2, STRESS PERIOD  17
1
  VOLUMETRIC BUDGET FOR ENTIRE MODEL AT END OF TIME STEP  2 IN STRESS PERIOD  17
  ------------------------------------------------------------------------------

     CUMULATIVE VOLUMES      L**3       RATES FOR THIS TIME STEP      L**3/T
     ------------------                 ------------------------

           IN:                                      IN:
           ---                                      ---
             STORAGE =     9255382.0000               STORAGE =       48201.1016
       CONSTANT HEAD =           0.0000         CONSTANT HEAD =           0.0000
     HEAD DEP BOUNDS =     3025072.5000       HEAD DEP BOUNDS =        6659.2354
        UZF RECHARGE =     1271177.2500          UZF RECHARGE =          71.1124
               GW ET =           0.0000                 GW ET =           0.0000
     SURFACE LEAKAGE =           0.0000       SURFACE LEAKAGE =           0.0000
      STREAM LEAKAGE =     6193162.0000        STREAM LEAKAGE =       14838.0020
                 MNW =       33890.9609                   MNW =           0.0000
          FARM WELLS =           0.0000            FARM WELLS =           0.0000
    FARM  NET  RECH. =     8133460.5000      FARM  NET  RECH. =        7872.6294

            TOTAL IN =    27912142.0000              TOTAL IN =       77642.0859

          OUT:                                     OUT:
          ----                                     ----
             STORAGE =     4506631.0000               STORAGE =           0.0000
       CONSTANT HEAD =           0.0000         CONSTANT HEAD =           0.0000
     HEAD DEP BOUNDS =     9171302.0000       HEAD DEP BOUNDS =       17060.5723
        UZF RECHARGE =           0.0000          UZF RECHARGE =           0.0000
               GW ET =           0.0000                 GW ET =           0.0000
     SURFACE LEAKAGE =        2869.4824       SURFACE LEAKAGE =           0.0000
      STREAM LEAKAGE =     1954564.5000        STREAM LEAKAGE =         747.8970
                 MNW =     3602761.0000                   MNW =       23825.9297
          FARM WELLS =     4218268.0000            FARM WELLS =       27222.8809
    FARM  NET  RECH. =     4455571.0000      FARM  NET  RECH. =        8786.8691

           TOTAL OUT =    27911968.0000             TOTAL OUT =       77644.1484

            IN - OUT =         174.0000              IN - OUT =          -2.0625

 PERCENT DISCREPANCY =           0.00     PERCENT DISCREPANCY =           0.00






          TIME SUMMARY AT END OF TIME STEP   2 IN STRESS PERIOD   17
                    SECONDS     MINUTES      HOURS       DAYS        YEARS
                    -----------------------------------------------------------
   TIME STEP LENGTH 1.31414E+06  21902.      365.04      15.210     4.16427E-02
 STRESS PERIOD TIME 2.62829E+06  43805.      730.08      30.420     8.32854E-02
         TOTAL TIME 4.46809E+07 7.44681E+05  12411.      517.14      1.4159    
1
1
                            STRESS PERIOD NO.   18, LENGTH =   30.42000    
                            -----------------------------------------------

                              NUMBER OF TIME STEPS =     2

                               MULTIPLIER FOR DELT =     1.000

                            INITIAL TIME STEP SIZE =   15.21000    

 REUSING NON-PARAMETER GHB CELLS FROM LAST STRESS PERIOD

     92 GHB CELLS

 REUSING STREAM SEGMENT DATA FROM LAST STRESS PERIOD
 USING INFILTRATION RATE FROM PREVIOUS STRESS 
 PERIOD.CURRENT PERIOD IS:           18

 REUSING MNW7  FROM LAST STRESS PERIOD

 Parameter:  WELLS1
 WELL NO. LAYER    ROW    COL  F-WELL ID    FARM ID         QMAX         QMAXRESET       
 ----------------------------------------------------------------------------------------
       1      1      5      6          1          1      5.0000E+03      0.0000E+00
       2      1      8      6          2          1      5.0000E+03      0.0000E+00
       3      1      8      9          3          1      5.0000E+03      0.0000E+00
       4      1      5      9          4          2      3.0000E+03      0.0000E+00
       5      1      6     10          5          2      2.0000E+03      0.0000E+00
       6      1      7     11          6          2      1.0000E+03      0.0000E+00
       7      1     18      3          7          3      2.0000E+03      0.0000E+00
       8      1     21      3          8          3      4.0000E+03      0.0000E+00
       9      1     18     19          9          4      3.0000E+03      0.0000E+00
      10      1     21     19         10          4      5.0000E+03      0.0000E+00
      11      0      6      2        -11          5      5.0000E+03      1.0000E+00
      12      0      8      2        -12          5      5.0000E+03      1.0000E+00
      13      0     10      2        -13          5      5.0000E+03      1.0000E+00
      14      0      3     19        -14          6      1.0000E+04      1.0000E+00
      15      0      6     17        -15          6      6.0000E+03      1.0000E+00

 NUMBER OF ACTIVE FARM WELLS:       15

 FARM-ID  NUMBER OF WELLS PER FARM  TOTAL MAX.CAPACITY PER FARM
       1                         3                   15000.0000
       2                         3                    6000.0000
       3                         2                    6000.0000
       4                         2                    8000.0000
       5                         3                   15000.0000
       6                         2                   16000.0000
       7                         0                       0.0000
       8                         0                       0.0000
 Reading list on unit  20
 LIST SCALING FACTOR=  1.0000    
 (THE SCALE FACTOR WAS APPLIED TO FIELDS 2 - 7)
 Reading list on unit  30
 Reading list on unit  40

  REF. EVAPOTRANSPIRATION =  6.880000E-03
 Reading list on unit  50

Transpiratory and Evaporative Fractions of Crop Consumptive Use
    % Transpiration % Evap. for Precip. % Evap. for Irrig.
    1          0.914          0.086          0.086
    2          0.950          0.050          0.050
    3          0.000          1.000          1.000
    4          0.125          0.875          0.875
    5          0.927          0.073          0.000
    6          0.900          0.100          0.000
 Reading list on unit  60

FRACTIONS OF IN-EFFICIENT LOSSES TO SW-RUNOFF FROM 
     PRECIPITATION:  IRRIGATION:
    1          0.500          0.600
    2          0.400          0.300
    3          0.600          0.500
    4          0.700          0.600
    5          0.500          0.000
    6          0.300          0.000

       PRECIPITATION FLUX =  1.300000E-04

 OPENING FILE ON UNIT  99:
 NRDV.IN                                                                                                                                                                                                                                                                                                                                                                                                                                                                                                             
 READING SCALE FACTOR LIST ON UNIT  80
 FIELD     SCALE FACTOR
     1       1.0000    
     2       6.0000    
     3       1.0000    
     4       1.0000    

UNRANKED LIST OF NON-ROUTED DELIVERIES TO FARMS [L3]:
TYPE:             1

FARM-ID  VOLUME:
      1   9.000E+04
      2   9.000E+04
      3   1.200E+05
      4   6.000E+04
      5   6.000E+04
      6   1.200E+05
      7   0.000E+00
      8   0.000E+00

FARM-ID  PRIORITY RANK OF NRD-TYPE:
      1           1
      2           1
      3           1
      4           1
      5           1
      6           1
      7           1
      8           1

FARM-ID  USE-FLAG:
         0 = SUFFICIENT USE
         1 = ABSOLUTE USE (RECHARGE SURPLUS BACK INTO CANAL)
         2 = ABSOLUTE USE (INJECT SURPLUS INTO FARM-WELLS)
      1           0
      2           0
      3           0
      4           0
      5           0
      6           0
      7           0
      8           0

LIST OF NON-ROUTED DELIVERIES IN RANKED SEQUENCE [L3/T]:

FARM-ID  RATE:
      1   2.959E+03
      2   2.959E+03
      3   3.945E+03
      4   1.972E+03
      5   1.972E+03
      6   3.945E+03
      7   0.000E+00
      8   0.000E+00

FARM-ID  USE-FLAG:
         0 = SUFFICIENT USE
         1 = ABSOLUTE USE (RECHARGE SURPLUS BACK INTO CANAL)
         2 = ABSOLUTE USE (INJECT SURPLUS INTO FARM-WELLS)
      1           0
      2           0
      3           0
      4           0
      5           0
      6           0
      7           0
      8           0

FARM ALLOTMENT HEIGHT [L]:   0.050
 
 SOLVING FOR HEAD 
 TIMESTEP FLAG ... =           0          18           1           1
 TIMESTEP FLAG ... =           1          18           1           2
 TIMESTEP FLAG ... =           2          18           1           3
 TIMESTEP FLAG ... =           3          18           1           4
 TIMESTEP FLAG ... =           4          18           1           5
 TIMESTEP FLAG ... =           5          18           1           6


     6 CALLS TO PCG ROUTINE FOR TIME STEP   1 IN STRESS PERIOD   18
    28 TOTAL ITERATIONS

 OUTPUT CONTROL FOR STRESS PERIOD   18   TIME STEP   1
    SAVE BUDGET
 UBDSV1 SAVING "         STORAGE" ON UNIT  70 AT TIME STEP  1, STRESS PERIOD  18
 UBDSV2 SAVING "   CONSTANT HEAD" ON UNIT  70 AT TIME STEP  1, STRESS PERIOD  18
 UBDSV1 SAVING "FLOW RIGHT FACE " ON UNIT  70 AT TIME STEP  1, STRESS PERIOD  18
 UBDSV1 SAVING "FLOW FRONT FACE " ON UNIT  70 AT TIME STEP  1, STRESS PERIOD  18
 UBDSV1 SAVING "FLOW LOWER FACE " ON UNIT  70 AT TIME STEP  1, STRESS PERIOD  18
 UBDSV4 SAVING " HEAD DEP BOUNDS" ON UNIT  70 AT TIME STEP  1, STRESS PERIOD  18
 UBUDSV SAVING "    UZF INFILTR." ON UNIT 61 AT TIME STEP  1, STRESS PERIOD   18
 UBUDSV SAVING "    UZF RECHARGE" ON UNIT 61 AT TIME STEP  1, STRESS PERIOD   18
 UBDSV3 SAVING "    UZF RECHARGE" ON UNIT  70 AT TIME STEP  1, STRESS PERIOD  18
 UBUDSV SAVING " SURFACE LEAKAGE" ON UNIT 61 AT TIME STEP  1, STRESS PERIOD   18
 UBDSV3 SAVING " SURFACE LEAKAGE" ON UNIT  70 AT TIME STEP  1, STRESS PERIOD  18
 UBDSV2 SAVING "  STREAM LEAKAGE" ON UNIT  70 AT TIME STEP  1, STRESS PERIOD  18



 UBDSV4 SAVING "             MNW" ON UNIT  70 AT TIME STEP  1, STRESS PERIOD  18
 UBDSV4 SAVING "      FARM WELLS" ON UNIT  70 AT TIME STEP  1, STRESS PERIOD  18
 UBDSV3 SAVING "FARM  NET  RECH." ON UNIT  70 AT TIME STEP  1, STRESS PERIOD  18
 
 SOLVING FOR HEAD 
 TIMESTEP FLAG ... =           6          18           2           1
 TIMESTEP FLAG ... =           7          18           2           2
 TIMESTEP FLAG ... =           8          18           2           3
 TIMESTEP FLAG ... =           9          18           2           4
 TIMESTEP FLAG ... =          10          18           2           5
     5 CALLS TO PCG ROUTINE FOR TIME STEP   2 IN STRESS PERIOD   18
    18 TOTAL ITERATIONS

 OUTPUT CONTROL FOR STRESS PERIOD   18   TIME STEP   2
    PRINT BUDGET
    SAVE HEAD FOR ALL LAYERS
    SAVE BUDGET
 UBDSV1 SAVING "         STORAGE" ON UNIT  70 AT TIME STEP  2, STRESS PERIOD  18
 UBDSV2 SAVING "   CONSTANT HEAD" ON UNIT  70 AT TIME STEP  2, STRESS PERIOD  18
 UBDSV1 SAVING "FLOW RIGHT FACE " ON UNIT  70 AT TIME STEP  2, STRESS PERIOD  18
 UBDSV1 SAVING "FLOW FRONT FACE " ON UNIT  70 AT TIME STEP  2, STRESS PERIOD  18
 UBDSV1 SAVING "FLOW LOWER FACE " ON UNIT  70 AT TIME STEP  2, STRESS PERIOD  18
 UBDSV4 SAVING " HEAD DEP BOUNDS" ON UNIT  70 AT TIME STEP  2, STRESS PERIOD  18
 UBUDSV SAVING "    UZF INFILTR." ON UNIT 61 AT TIME STEP  2, STRESS PERIOD   18
 UBUDSV SAVING "    UZF RECHARGE" ON UNIT 61 AT TIME STEP  2, STRESS PERIOD   18
 UBDSV3 SAVING "    UZF RECHARGE" ON UNIT  70 AT TIME STEP  2, STRESS PERIOD  18
 UBUDSV SAVING " SURFACE LEAKAGE" ON UNIT 61 AT TIME STEP  2, STRESS PERIOD   18
 UBDSV3 SAVING " SURFACE LEAKAGE" ON UNIT  70 AT TIME STEP  2, STRESS PERIOD  18


UNSATURATED ZONE PACKAGE VOLUMETRIC BUDGET FOR  TIME STEP    2 STRESS PERIOD   18
  ------------------------------------------------------------------------------



     CUMULATIVE VOLUMES      L**3       RATES FOR THIS TIME STEP      L**3/T
     ------------------                 ------------------------

           IN:                                      IN:
           ---                                      ---
        INFILTRATION =     1716571.3174          INFILTRATION =        1687.1670

          OUT:                                     OUT:
          ----                                     ----
              UZF ET =       0.0000E+00                UZF ET =       0.0000E+00
        UZF RECHARGE =     1274209.0200          UZF RECHARGE =         175.4147

            IN - OUT =      442362.2974              IN - OUT =        1511.7523

          STORAGE:                                 STORAGE:
          --------                                 --------
      STORAGE CHANGE =      442293.2037        STORAGE CHANGE =        1511.7559

 PERCENT DISCREPANCY IS DIFFERENCE BETWEEN IN-OUT MINUS CHANGE IN STORAGE
 DIVIDED BY THE AVERAGE OF IN AND OUT TIMES 100

 PERCENT DISCREPANCY =           0.00     PERCENT DISCREPANCY =           0.00






 UBDSV2 SAVING "  STREAM LEAKAGE" ON UNIT  70 AT TIME STEP  2, STRESS PERIOD  18



 UBDSV4 SAVING "             MNW" ON UNIT  70 AT TIME STEP  2, STRESS PERIOD  18
 UBDSV4 SAVING "      FARM WELLS" ON UNIT  70 AT TIME STEP  2, STRESS PERIOD  18
 UBDSV3 SAVING "FARM  NET  RECH." ON UNIT  70 AT TIME STEP  2, STRESS PERIOD  18

 HEAD WILL BE SAVED ON UNIT   22 AT END OF TIME STEP   2, STRESS PERIOD   18
1
  VOLUMETRIC BUDGET FOR ENTIRE MODEL AT END OF TIME STEP  2 IN STRESS PERIOD  18
  ------------------------------------------------------------------------------

     CUMULATIVE VOLUMES      L**3       RATES FOR THIS TIME STEP      L**3/T
     ------------------                 ------------------------

           IN:                                      IN:
           ---                                      ---
             STORAGE =    10619329.0000               STORAGE =       43060.0703
       CONSTANT HEAD =           0.0000         CONSTANT HEAD =           0.0000
     HEAD DEP BOUNDS =     3249053.5000       HEAD DEP BOUNDS =        7580.9575
        UZF RECHARGE =     1274209.0000          UZF RECHARGE =         175.4147
               GW ET =           0.0000                 GW ET =           0.0000
     SURFACE LEAKAGE =           0.0000       SURFACE LEAKAGE =           0.0000
      STREAM LEAKAGE =     6602799.5000        STREAM LEAKAGE =       13741.7617
                 MNW =       33890.9609                   MNW =           0.0000
          FARM WELLS =           0.0000            FARM WELLS =           0.0000
    FARM  NET  RECH. =     8452349.0000      FARM  NET  RECH. =       10598.8398

            TOTAL IN =    30231628.0000              TOTAL IN =       75157.0469

          OUT:                                     OUT:
          ----                                     ----
             STORAGE =     4506631.0000               STORAGE =           0.0000
       CONSTANT HEAD =           0.0000         CONSTANT HEAD =           0.0000
     HEAD DEP BOUNDS =     9677059.0000       HEAD DEP BOUNDS =       16500.4492
        UZF RECHARGE =           0.0000          UZF RECHARGE =           0.0000
               GW ET =           0.0000                 GW ET =           0.0000
     SURFACE LEAKAGE =        2869.4824       SURFACE LEAKAGE =           0.0000
      STREAM LEAKAGE =     1962468.8750        STREAM LEAKAGE =         168.8436
                 MNW =     4411472.0000                   MNW =       26551.5371
          FARM WELLS =     4997120.5000            FARM WELLS =       25642.5312
    FARM  NET  RECH. =     4673912.5000      FARM  NET  RECH. =        6296.5874

           TOTAL OUT =    30231532.0000             TOTAL OUT =       75159.9453

            IN - OUT =          96.0000              IN - OUT =          -2.8984

 PERCENT DISCREPANCY =           0.00     PERCENT DISCREPANCY =           0.00






          TIME SUMMARY AT END OF TIME STEP   2 IN STRESS PERIOD   18
                    SECONDS     MINUTES      HOURS       DAYS        YEARS
                    -----------------------------------------------------------
   TIME STEP LENGTH 1.31414E+06  21902.      365.04      15.210     4.16427E-02
 STRESS PERIOD TIME 2.62829E+06  43805.      730.08      30.420     8.32854E-02
         TOTAL TIME 4.73092E+07 7.88486E+05  13141.      547.56      1.4991    
1
1
                            STRESS PERIOD NO.   19, LENGTH =   30.42000    
                            -----------------------------------------------

                              NUMBER OF TIME STEPS =     2

                               MULTIPLIER FOR DELT =     1.000

                            INITIAL TIME STEP SIZE =   15.21000    

 REUSING NON-PARAMETER GHB CELLS FROM LAST STRESS PERIOD

     92 GHB CELLS

 REUSING STREAM SEGMENT DATA FROM LAST STRESS PERIOD
 USING INFILTRATION RATE FROM PREVIOUS STRESS 
 PERIOD.CURRENT PERIOD IS:           19

 REUSING MNW7  FROM LAST STRESS PERIOD

 Parameter:  WELLS1
 WELL NO. LAYER    ROW    COL  F-WELL ID    FARM ID         QMAX         QMAXRESET       
 ----------------------------------------------------------------------------------------
       1      1      5      6          1          1      5.0000E+03      0.0000E+00
       2      1      8      6          2          1      5.0000E+03      0.0000E+00
       3      1      8      9          3          1      5.0000E+03      0.0000E+00
       4      1      5      9          4          2      3.0000E+03      0.0000E+00
       5      1      6     10          5          2      2.0000E+03      0.0000E+00
       6      1      7     11          6          2      1.0000E+03      0.0000E+00
       7      1     18      3          7          3      2.0000E+03      0.0000E+00
       8      1     21      3          8          3      4.0000E+03      0.0000E+00
       9      1     18     19          9          4      3.0000E+03      0.0000E+00
      10      1     21     19         10          4      5.0000E+03      0.0000E+00
      11      0      6      2        -11          5      5.0000E+03      1.0000E+00
      12      0      8      2        -12          5      5.0000E+03      1.0000E+00
      13      0     10      2        -13          5      5.0000E+03      1.0000E+00
      14      0      3     19        -14          6      1.0000E+04      1.0000E+00
      15      0      6     17        -15          6      6.0000E+03      1.0000E+00

 NUMBER OF ACTIVE FARM WELLS:       15

 FARM-ID  NUMBER OF WELLS PER FARM  TOTAL MAX.CAPACITY PER FARM
       1                         3                   15000.0000
       2                         3                    6000.0000
       3                         2                    6000.0000
       4                         2                    8000.0000
       5                         3                   15000.0000
       6                         2                   16000.0000
       7                         0                       0.0000
       8                         0                       0.0000
 Reading list on unit  20
 LIST SCALING FACTOR=  1.0000    
 (THE SCALE FACTOR WAS APPLIED TO FIELDS 2 - 7)
 Reading list on unit  30
 Reading list on unit  40

  REF. EVAPOTRANSPIRATION =  6.920000E-03
 Reading list on unit  50

Transpiratory and Evaporative Fractions of Crop Consumptive Use
    % Transpiration % Evap. for Precip. % Evap. for Irrig.
    1          0.000          1.000          0.500
    2          0.950          0.050          0.050
    3          0.000          1.000          1.000
    4          0.125          0.875          0.875
    5          0.927          0.073          0.000
    6          0.900          0.100          0.000
 Reading list on unit  60

FRACTIONS OF IN-EFFICIENT LOSSES TO SW-RUNOFF FROM 
     PRECIPITATION:  IRRIGATION:
    1          0.500          0.600
    2          0.400          0.300
    3          0.600          0.500
    4          0.700          0.600
    5          0.500          0.000
    6          0.300          0.000

       PRECIPITATION FLUX =  3.000000E-05

 OPENING FILE ON UNIT  99:
 NRDV.IN                                                                                                                                                                                                                                                                                                                                                                                                                                                                                                             
 READING SCALE FACTOR LIST ON UNIT  80
 FIELD     SCALE FACTOR
     1       1.0000    
     2       6.0000    
     3       1.0000    
     4       1.0000    

UNRANKED LIST OF NON-ROUTED DELIVERIES TO FARMS [L3]:
TYPE:             1

FARM-ID  VOLUME:
      1   9.000E+04
      2   9.000E+04
      3   1.200E+05
      4   6.000E+04
      5   6.000E+04
      6   1.200E+05
      7   0.000E+00
      8   0.000E+00

FARM-ID  PRIORITY RANK OF NRD-TYPE:
      1           1
      2           1
      3           1
      4           1
      5           1
      6           1
      7           1
      8           1

FARM-ID  USE-FLAG:
         0 = SUFFICIENT USE
         1 = ABSOLUTE USE (RECHARGE SURPLUS BACK INTO CANAL)
         2 = ABSOLUTE USE (INJECT SURPLUS INTO FARM-WELLS)
      1           0
      2           0
      3           0
      4           0
      5           0
      6           0
      7           0
      8           0

LIST OF NON-ROUTED DELIVERIES IN RANKED SEQUENCE [L3/T]:

FARM-ID  RATE:
      1   2.959E+03
      2   2.959E+03
      3   3.945E+03
      4   1.972E+03
      5   1.972E+03
      6   3.945E+03
      7   0.000E+00
      8   0.000E+00

FARM-ID  USE-FLAG:
         0 = SUFFICIENT USE
         1 = ABSOLUTE USE (RECHARGE SURPLUS BACK INTO CANAL)
         2 = ABSOLUTE USE (INJECT SURPLUS INTO FARM-WELLS)
      1           0
      2           0
      3           0
      4           0
      5           0
      6           0
      7           0
      8           0

FARM ALLOTMENT HEIGHT [L]:   0.050
 
 SOLVING FOR HEAD 
 TIMESTEP FLAG ... =           0          19           1           1
 TIMESTEP FLAG ... =           1          19           1           2
 TIMESTEP FLAG ... =           2          19           1           3
 TIMESTEP FLAG ... =           3          19           1           4
 TIMESTEP FLAG ... =           4          19           1           5
 TIMESTEP FLAG ... =           5          19           1           6


     6 CALLS TO PCG ROUTINE FOR TIME STEP   1 IN STRESS PERIOD   19
    26 TOTAL ITERATIONS

 OUTPUT CONTROL FOR STRESS PERIOD   19   TIME STEP   1
    SAVE BUDGET
 UBDSV1 SAVING "         STORAGE" ON UNIT  70 AT TIME STEP  1, STRESS PERIOD  19
 UBDSV2 SAVING "   CONSTANT HEAD" ON UNIT  70 AT TIME STEP  1, STRESS PERIOD  19
 UBDSV1 SAVING "FLOW RIGHT FACE " ON UNIT  70 AT TIME STEP  1, STRESS PERIOD  19
 UBDSV1 SAVING "FLOW FRONT FACE " ON UNIT  70 AT TIME STEP  1, STRESS PERIOD  19
 UBDSV1 SAVING "FLOW LOWER FACE " ON UNIT  70 AT TIME STEP  1, STRESS PERIOD  19
 UBDSV4 SAVING " HEAD DEP BOUNDS" ON UNIT  70 AT TIME STEP  1, STRESS PERIOD  19
 UBUDSV SAVING "    UZF INFILTR." ON UNIT 61 AT TIME STEP  1, STRESS PERIOD   19
 UBUDSV SAVING "    UZF RECHARGE" ON UNIT 61 AT TIME STEP  1, STRESS PERIOD   19
 UBDSV3 SAVING "    UZF RECHARGE" ON UNIT  70 AT TIME STEP  1, STRESS PERIOD  19
 UBUDSV SAVING " SURFACE LEAKAGE" ON UNIT 61 AT TIME STEP  1, STRESS PERIOD   19
 UBDSV3 SAVING " SURFACE LEAKAGE" ON UNIT  70 AT TIME STEP  1, STRESS PERIOD  19
 UBDSV2 SAVING "  STREAM LEAKAGE" ON UNIT  70 AT TIME STEP  1, STRESS PERIOD  19



 UBDSV4 SAVING "             MNW" ON UNIT  70 AT TIME STEP  1, STRESS PERIOD  19
 UBDSV4 SAVING "      FARM WELLS" ON UNIT  70 AT TIME STEP  1, STRESS PERIOD  19
 UBDSV3 SAVING "FARM  NET  RECH." ON UNIT  70 AT TIME STEP  1, STRESS PERIOD  19
 
 SOLVING FOR HEAD 
 TIMESTEP FLAG ... =           6          19           2           1
 TIMESTEP FLAG ... =           7          19           2           2
 TIMESTEP FLAG ... =           8          19           2           3
 TIMESTEP FLAG ... =           9          19           2           4
 TIMESTEP FLAG ... =          10          19           2           5
 TIMESTEP FLAG ... =          11          19           2           6
     6 CALLS TO PCG ROUTINE FOR TIME STEP   2 IN STRESS PERIOD   19
    21 TOTAL ITERATIONS

 OUTPUT CONTROL FOR STRESS PERIOD   19   TIME STEP   2
    SAVE BUDGET
 UBDSV1 SAVING "         STORAGE" ON UNIT  70 AT TIME STEP  2, STRESS PERIOD  19
 UBDSV2 SAVING "   CONSTANT HEAD" ON UNIT  70 AT TIME STEP  2, STRESS PERIOD  19
 UBDSV1 SAVING "FLOW RIGHT FACE " ON UNIT  70 AT TIME STEP  2, STRESS PERIOD  19
 UBDSV1 SAVING "FLOW FRONT FACE " ON UNIT  70 AT TIME STEP  2, STRESS PERIOD  19
 UBDSV1 SAVING "FLOW LOWER FACE " ON UNIT  70 AT TIME STEP  2, STRESS PERIOD  19
 UBDSV4 SAVING " HEAD DEP BOUNDS" ON UNIT  70 AT TIME STEP  2, STRESS PERIOD  19
 UBUDSV SAVING "    UZF INFILTR." ON UNIT 61 AT TIME STEP  2, STRESS PERIOD   19
 UBUDSV SAVING "    UZF RECHARGE" ON UNIT 61 AT TIME STEP  2, STRESS PERIOD   19
 UBDSV3 SAVING "    UZF RECHARGE" ON UNIT  70 AT TIME STEP  2, STRESS PERIOD  19
 UBUDSV SAVING " SURFACE LEAKAGE" ON UNIT 61 AT TIME STEP  2, STRESS PERIOD   19
 UBDSV3 SAVING " SURFACE LEAKAGE" ON UNIT  70 AT TIME STEP  2, STRESS PERIOD  19


UNSATURATED ZONE PACKAGE VOLUMETRIC BUDGET FOR  TIME STEP    2 STRESS PERIOD   19
  ------------------------------------------------------------------------------



     CUMULATIVE VOLUMES      L**3       RATES FOR THIS TIME STEP      L**3/T
     ------------------                 ------------------------

           IN:                                      IN:
           ---                                      ---
        INFILTRATION =     1746991.3194          INFILTRATION =        1000.0001

          OUT:                                     OUT:
          ----                                     ----
              UZF ET =       0.0000E+00                UZF ET =       0.0000E+00
        UZF RECHARGE =     1293120.9035          UZF RECHARGE =         843.3489

            IN - OUT =      453870.4159              IN - OUT =         156.6512

          STORAGE:                                 STORAGE:
          --------                                 --------
      STORAGE CHANGE =      453807.1112        STORAGE CHANGE =         156.8422

 PERCENT DISCREPANCY IS DIFFERENCE BETWEEN IN-OUT MINUS CHANGE IN STORAGE
 DIVIDED BY THE AVERAGE OF IN AND OUT TIMES 100

 PERCENT DISCREPANCY =           0.00     PERCENT DISCREPANCY =          -0.02






 UBDSV2 SAVING "  STREAM LEAKAGE" ON UNIT  70 AT TIME STEP  2, STRESS PERIOD  19



 UBDSV4 SAVING "             MNW" ON UNIT  70 AT TIME STEP  2, STRESS PERIOD  19
 UBDSV4 SAVING "      FARM WELLS" ON UNIT  70 AT TIME STEP  2, STRESS PERIOD  19
 UBDSV3 SAVING "FARM  NET  RECH." ON UNIT  70 AT TIME STEP  2, STRESS PERIOD  19
1
  VOLUMETRIC BUDGET FOR ENTIRE MODEL AT END OF TIME STEP  2 IN STRESS PERIOD  19
  ------------------------------------------------------------------------------

     CUMULATIVE VOLUMES      L**3       RATES FOR THIS TIME STEP      L**3/T
     ------------------                 ------------------------

           IN:                                      IN:
           ---                                      ---
             STORAGE =    11398804.0000               STORAGE =       23092.0742
       CONSTANT HEAD =           0.0000         CONSTANT HEAD =           0.0000
     HEAD DEP BOUNDS =     3486177.0000       HEAD DEP BOUNDS =        7846.5249
        UZF RECHARGE =     1293120.8750          UZF RECHARGE =         843.3489
               GW ET =           0.0000                 GW ET =           0.0000
     SURFACE LEAKAGE =           0.0000       SURFACE LEAKAGE =           0.0000
      STREAM LEAKAGE =     6991588.0000        STREAM LEAKAGE =       12992.1250
                 MNW =       33890.9609                   MNW =           0.0000
          FARM WELLS =           0.0000            FARM WELLS =           0.0000
    FARM  NET  RECH. =     8756039.0000      FARM  NET  RECH. =       10080.9570

            TOTAL IN =    31959620.0000              TOTAL IN =       54855.0312

          OUT:                                     OUT:
          ----                                     ----
             STORAGE =     4578409.0000               STORAGE =         967.7598
       CONSTANT HEAD =           0.0000         CONSTANT HEAD =           0.0000
     HEAD DEP BOUNDS =    10170155.0000       HEAD DEP BOUNDS =       16125.1133
        UZF RECHARGE =           0.0000          UZF RECHARGE =           0.0000
               GW ET =           0.0000                 GW ET =           0.0000
     SURFACE LEAKAGE =        2869.4824       SURFACE LEAKAGE =           0.0000
      STREAM LEAKAGE =     1964923.3750        STREAM LEAKAGE =          68.4320
                 MNW =     5049809.0000                   MNW =       20964.4824
          FARM WELLS =     5362019.0000            FARM WELLS =       12103.9141
    FARM  NET  RECH. =     4831346.5000      FARM  NET  RECH. =        4626.6260

           TOTAL OUT =    31959530.0000             TOTAL OUT =       54856.3281

            IN - OUT =          90.0000              IN - OUT =          -1.2969

 PERCENT DISCREPANCY =           0.00     PERCENT DISCREPANCY =           0.00






          TIME SUMMARY AT END OF TIME STEP   2 IN STRESS PERIOD   19
                    SECONDS     MINUTES      HOURS       DAYS        YEARS
                    -----------------------------------------------------------
   TIME STEP LENGTH 1.31414E+06  21902.      365.04      15.210     4.16427E-02
 STRESS PERIOD TIME 2.62829E+06  43805.      730.08      30.420     8.32854E-02
         TOTAL TIME 4.99375E+07 8.32291E+05  13872.      577.98      1.5824    
1
1
                            STRESS PERIOD NO.   20, LENGTH =   30.42000    
                            -----------------------------------------------

                              NUMBER OF TIME STEPS =     2

                               MULTIPLIER FOR DELT =     1.000

                            INITIAL TIME STEP SIZE =   15.21000    

 REUSING NON-PARAMETER GHB CELLS FROM LAST STRESS PERIOD

     92 GHB CELLS

 REUSING STREAM SEGMENT DATA FROM LAST STRESS PERIOD
 USING INFILTRATION RATE FROM PREVIOUS STRESS 
 PERIOD.CURRENT PERIOD IS:           20

 REUSING MNW7  FROM LAST STRESS PERIOD

 Parameter:  WELLS1
 WELL NO. LAYER    ROW    COL  F-WELL ID    FARM ID         QMAX         QMAXRESET       
 ----------------------------------------------------------------------------------------
       1      1      5      6          1          1      5.0000E+03      0.0000E+00
       2      1      8      6          2          1      5.0000E+03      0.0000E+00
       3      1      8      9          3          1      5.0000E+03      0.0000E+00
       4      1      5      9          4          2      3.0000E+03      0.0000E+00
       5      1      6     10          5          2      2.0000E+03      0.0000E+00
       6      1      7     11          6          2      1.0000E+03      0.0000E+00
       7      1     18      3          7          3      2.0000E+03      0.0000E+00
       8      1     21      3          8          3      4.0000E+03      0.0000E+00
       9      1     18     19          9          4      3.0000E+03      0.0000E+00
      10      1     21     19         10          4      5.0000E+03      0.0000E+00
      11      0      6      2        -11          5      5.0000E+03      1.0000E+00
      12      0      8      2        -12          5      5.0000E+03      1.0000E+00
      13      0     10      2        -13          5      5.0000E+03      1.0000E+00
      14      0      3     19        -14          6      1.0000E+04      1.0000E+00
      15      0      6     17        -15          6      6.0000E+03      1.0000E+00

 NUMBER OF ACTIVE FARM WELLS:       15

 FARM-ID  NUMBER OF WELLS PER FARM  TOTAL MAX.CAPACITY PER FARM
       1                         3                   15000.0000
       2                         3                    6000.0000
       3                         2                    6000.0000
       4                         2                    8000.0000
       5                         3                   15000.0000
       6                         2                   16000.0000
       7                         0                       0.0000
       8                         0                       0.0000
 Reading list on unit  20
 LIST SCALING FACTOR=  1.0000    
 (THE SCALE FACTOR WAS APPLIED TO FIELDS 2 - 7)
 Reading list on unit  30
 Reading list on unit  40

  REF. EVAPOTRANSPIRATION =  6.170000E-03
 Reading list on unit  50

Transpiratory and Evaporative Fractions of Crop Consumptive Use
    % Transpiration % Evap. for Precip. % Evap. for Irrig.
    1          0.000          1.000          0.500
    2          0.950          0.050          0.050
    3          0.000          1.000          1.000
    4          0.125          0.875          0.875
    5          0.927          0.073          0.000
    6          0.700          0.300          0.000
 Reading list on unit  60

FRACTIONS OF IN-EFFICIENT LOSSES TO SW-RUNOFF FROM 
     PRECIPITATION:  IRRIGATION:
    1          0.500          0.600
    2          0.400          0.300
    3          0.600          0.500
    4          0.700          0.600
    5          0.500          0.000
    6          0.300          0.000

       PRECIPITATION FLUX =  3.000000E-05

 OPENING FILE ON UNIT  99:
 NRDV.IN                                                                                                                                                                                                                                                                                                                                                                                                                                                                                                             
 READING SCALE FACTOR LIST ON UNIT  80
 FIELD     SCALE FACTOR
     1       1.0000    
     2       5.0000    
     3       1.0000    
     4       1.0000    

UNRANKED LIST OF NON-ROUTED DELIVERIES TO FARMS [L3]:
TYPE:             1

FARM-ID  VOLUME:
      1   7.500E+04
      2   7.500E+04
      3   1.000E+05
      4   5.000E+04
      5   5.000E+04
      6   1.000E+05
      7   0.000E+00
      8   0.000E+00

FARM-ID  PRIORITY RANK OF NRD-TYPE:
      1           1
      2           1
      3           1
      4           1
      5           1
      6           1
      7           1
      8           1

FARM-ID  USE-FLAG:
         0 = SUFFICIENT USE
         1 = ABSOLUTE USE (RECHARGE SURPLUS BACK INTO CANAL)
         2 = ABSOLUTE USE (INJECT SURPLUS INTO FARM-WELLS)
      1           0
      2           0
      3           0
      4           0
      5           0
      6           0
      7           0
      8           0

LIST OF NON-ROUTED DELIVERIES IN RANKED SEQUENCE [L3/T]:

FARM-ID  RATE:
      1   2.465E+03
      2   2.465E+03
      3   3.287E+03
      4   1.644E+03
      5   1.644E+03
      6   3.287E+03
      7   0.000E+00
      8   0.000E+00

FARM-ID  USE-FLAG:
         0 = SUFFICIENT USE
         1 = ABSOLUTE USE (RECHARGE SURPLUS BACK INTO CANAL)
         2 = ABSOLUTE USE (INJECT SURPLUS INTO FARM-WELLS)
      1           0
      2           0
      3           0
      4           0
      5           0
      6           0
      7           0
      8           0

FARM ALLOTMENT HEIGHT [L]:   0.050
 
 SOLVING FOR HEAD 
 TIMESTEP FLAG ... =           0          20           1           1
 TIMESTEP FLAG ... =           1          20           1           2
 TIMESTEP FLAG ... =           2          20           1           3
 TIMESTEP FLAG ... =           3          20           1           4
 TIMESTEP FLAG ... =           4          20           1           5
 TIMESTEP FLAG ... =           5          20           1           6


     6 CALLS TO PCG ROUTINE FOR TIME STEP   1 IN STRESS PERIOD   20
    25 TOTAL ITERATIONS

 OUTPUT CONTROL FOR STRESS PERIOD   20   TIME STEP   1
    SAVE BUDGET
 UBDSV1 SAVING "         STORAGE" ON UNIT  70 AT TIME STEP  1, STRESS PERIOD  20
 UBDSV2 SAVING "   CONSTANT HEAD" ON UNIT  70 AT TIME STEP  1, STRESS PERIOD  20
 UBDSV1 SAVING "FLOW RIGHT FACE " ON UNIT  70 AT TIME STEP  1, STRESS PERIOD  20
 UBDSV1 SAVING "FLOW FRONT FACE " ON UNIT  70 AT TIME STEP  1, STRESS PERIOD  20
 UBDSV1 SAVING "FLOW LOWER FACE " ON UNIT  70 AT TIME STEP  1, STRESS PERIOD  20
 UBDSV4 SAVING " HEAD DEP BOUNDS" ON UNIT  70 AT TIME STEP  1, STRESS PERIOD  20
 UBUDSV SAVING "    UZF INFILTR." ON UNIT 61 AT TIME STEP  1, STRESS PERIOD   20
 UBUDSV SAVING "    UZF RECHARGE" ON UNIT 61 AT TIME STEP  1, STRESS PERIOD   20
 UBDSV3 SAVING "    UZF RECHARGE" ON UNIT  70 AT TIME STEP  1, STRESS PERIOD  20
 UBUDSV SAVING " SURFACE LEAKAGE" ON UNIT 61 AT TIME STEP  1, STRESS PERIOD   20
 UBDSV3 SAVING " SURFACE LEAKAGE" ON UNIT  70 AT TIME STEP  1, STRESS PERIOD  20
 UBDSV2 SAVING "  STREAM LEAKAGE" ON UNIT  70 AT TIME STEP  1, STRESS PERIOD  20



 UBDSV4 SAVING "             MNW" ON UNIT  70 AT TIME STEP  1, STRESS PERIOD  20
 UBDSV4 SAVING "      FARM WELLS" ON UNIT  70 AT TIME STEP  1, STRESS PERIOD  20
 UBDSV3 SAVING "FARM  NET  RECH." ON UNIT  70 AT TIME STEP  1, STRESS PERIOD  20
 
 SOLVING FOR HEAD 
 TIMESTEP FLAG ... =           6          20           2           1
 TIMESTEP FLAG ... =           7          20           2           2
 TIMESTEP FLAG ... =           8          20           2           3
 TIMESTEP FLAG ... =           9          20           2           4
 TIMESTEP FLAG ... =          10          20           2           5
 TIMESTEP FLAG ... =          11          20           2           6
     6 CALLS TO PCG ROUTINE FOR TIME STEP   2 IN STRESS PERIOD   20
    18 TOTAL ITERATIONS

 OUTPUT CONTROL FOR STRESS PERIOD   20   TIME STEP   2
    SAVE BUDGET
 UBDSV1 SAVING "         STORAGE" ON UNIT  70 AT TIME STEP  2, STRESS PERIOD  20
 UBDSV2 SAVING "   CONSTANT HEAD" ON UNIT  70 AT TIME STEP  2, STRESS PERIOD  20
 UBDSV1 SAVING "FLOW RIGHT FACE " ON UNIT  70 AT TIME STEP  2, STRESS PERIOD  20
 UBDSV1 SAVING "FLOW FRONT FACE " ON UNIT  70 AT TIME STEP  2, STRESS PERIOD  20
 UBDSV1 SAVING "FLOW LOWER FACE " ON UNIT  70 AT TIME STEP  2, STRESS PERIOD  20
 UBDSV4 SAVING " HEAD DEP BOUNDS" ON UNIT  70 AT TIME STEP  2, STRESS PERIOD  20
 UBUDSV SAVING "    UZF INFILTR." ON UNIT 61 AT TIME STEP  2, STRESS PERIOD   20
 UBUDSV SAVING "    UZF RECHARGE" ON UNIT 61 AT TIME STEP  2, STRESS PERIOD   20
 UBDSV3 SAVING "    UZF RECHARGE" ON UNIT  70 AT TIME STEP  2, STRESS PERIOD  20
 UBUDSV SAVING " SURFACE LEAKAGE" ON UNIT 61 AT TIME STEP  2, STRESS PERIOD   20
 UBDSV3 SAVING " SURFACE LEAKAGE" ON UNIT  70 AT TIME STEP  2, STRESS PERIOD  20


UNSATURATED ZONE PACKAGE VOLUMETRIC BUDGET FOR  TIME STEP    2 STRESS PERIOD   20
  ------------------------------------------------------------------------------



     CUMULATIVE VOLUMES      L**3       RATES FOR THIS TIME STEP      L**3/T
     ------------------                 ------------------------

           IN:                                      IN:
           ---                                      ---
        INFILTRATION =     1777411.3213          INFILTRATION =        1000.0001

          OUT:                                     OUT:
          ----                                     ----
              UZF ET =       0.0000E+00                UZF ET =       0.0000E+00
        UZF RECHARGE =     1330584.9209          UZF RECHARGE =        1367.5372

            IN - OUT =      446826.4005              IN - OUT =        -367.5371

          STORAGE:                                 STORAGE:
          --------                                 --------
      STORAGE CHANGE =      446768.9048        STORAGE CHANGE =        -367.3462

 PERCENT DISCREPANCY IS DIFFERENCE BETWEEN IN-OUT MINUS CHANGE IN STORAGE
 DIVIDED BY THE AVERAGE OF IN AND OUT TIMES 100

 PERCENT DISCREPANCY =           0.00     PERCENT DISCREPANCY =          -0.01






 UBDSV2 SAVING "  STREAM LEAKAGE" ON UNIT  70 AT TIME STEP  2, STRESS PERIOD  20



 UBDSV4 SAVING "             MNW" ON UNIT  70 AT TIME STEP  2, STRESS PERIOD  20
 UBDSV4 SAVING "      FARM WELLS" ON UNIT  70 AT TIME STEP  2, STRESS PERIOD  20
 UBDSV3 SAVING "FARM  NET  RECH." ON UNIT  70 AT TIME STEP  2, STRESS PERIOD  20
1
  VOLUMETRIC BUDGET FOR ENTIRE MODEL AT END OF TIME STEP  2 IN STRESS PERIOD  20
  ------------------------------------------------------------------------------

     CUMULATIVE VOLUMES      L**3       RATES FOR THIS TIME STEP      L**3/T
     ------------------                 ------------------------

           IN:                                      IN:
           ---                                      ---
             STORAGE =    11972532.0000               STORAGE =       18011.5020
       CONSTANT HEAD =           0.0000         CONSTANT HEAD =           0.0000
     HEAD DEP BOUNDS =     3727288.7500       HEAD DEP BOUNDS =        7948.8970
        UZF RECHARGE =     1330584.8750          UZF RECHARGE =        1367.5371
               GW ET =           0.0000                 GW ET =           0.0000
     SURFACE LEAKAGE =           0.0000       SURFACE LEAKAGE =           0.0000
      STREAM LEAKAGE =     7387071.5000        STREAM LEAKAGE =       13096.2021
                 MNW =       33890.9609                   MNW =           0.0000
          FARM WELLS =           0.0000            FARM WELLS =           0.0000
    FARM  NET  RECH. =     9032869.0000      FARM  NET  RECH. =        9168.9277

            TOTAL IN =    33484236.0000              TOTAL IN =       49593.0625

          OUT:                                     OUT:
          ----                                     ----
             STORAGE =     4594864.0000               STORAGE =         248.5161
       CONSTANT HEAD =           0.0000         CONSTANT HEAD =           0.0000
     HEAD DEP BOUNDS =    10655069.0000       HEAD DEP BOUNDS =       15882.3242
        UZF RECHARGE =           0.0000          UZF RECHARGE =           0.0000
               GW ET =           0.0000                 GW ET =           0.0000
     SURFACE LEAKAGE =        2869.4824       SURFACE LEAKAGE =           0.0000
      STREAM LEAKAGE =     1966054.6250        STREAM LEAKAGE =          22.8860
                 MNW =     5662619.0000                   MNW =       20129.8867
          FARM WELLS =     5662983.5000            FARM WELLS =        9969.9160
    FARM  NET  RECH. =     4939754.0000      FARM  NET  RECH. =        3340.9761

           TOTAL OUT =    33484214.0000             TOTAL OUT =       49594.5078

            IN - OUT =          22.0000              IN - OUT =          -1.4453

 PERCENT DISCREPANCY =           0.00     PERCENT DISCREPANCY =           0.00






          TIME SUMMARY AT END OF TIME STEP   2 IN STRESS PERIOD   20
                    SECONDS     MINUTES      HOURS       DAYS        YEARS
                    -----------------------------------------------------------
   TIME STEP LENGTH 1.31414E+06  21902.      365.04      15.210     4.16427E-02
 STRESS PERIOD TIME 2.62829E+06  43805.      730.08      30.420     8.32854E-02
         TOTAL TIME 5.25658E+07 8.76096E+05  14602.      608.40      1.6657    
1
1
                            STRESS PERIOD NO.   21, LENGTH =   30.42000    
                            -----------------------------------------------

                              NUMBER OF TIME STEPS =     2

                               MULTIPLIER FOR DELT =     1.000

                            INITIAL TIME STEP SIZE =   15.21000    

 REUSING NON-PARAMETER GHB CELLS FROM LAST STRESS PERIOD

     92 GHB CELLS

 REUSING STREAM SEGMENT DATA FROM LAST STRESS PERIOD
 USING INFILTRATION RATE FROM PREVIOUS STRESS 
 PERIOD.CURRENT PERIOD IS:           21

 REUSING MNW7  FROM LAST STRESS PERIOD

 Parameter:  WELLS1
 WELL NO. LAYER    ROW    COL  F-WELL ID    FARM ID         QMAX         QMAXRESET       
 ----------------------------------------------------------------------------------------
       1      1      5      6          1          1      5.0000E+03      0.0000E+00
       2      1      8      6          2          1      5.0000E+03      0.0000E+00
       3      1      8      9          3          1      5.0000E+03      0.0000E+00
       4      1      5      9          4          2      3.0000E+03      0.0000E+00
       5      1      6     10          5          2      2.0000E+03      0.0000E+00
       6      1      7     11          6          2      1.0000E+03      0.0000E+00
       7      1     18      3          7          3      2.0000E+03      0.0000E+00
       8      1     21      3          8          3      4.0000E+03      0.0000E+00
       9      1     18     19          9          4      3.0000E+03      0.0000E+00
      10      1     21     19         10          4      5.0000E+03      0.0000E+00
      11      0      6      2        -11          5      5.0000E+03      1.0000E+00
      12      0      8      2        -12          5      5.0000E+03      1.0000E+00
      13      0     10      2        -13          5      5.0000E+03      1.0000E+00
      14      0      3     19        -14          6      1.0000E+04      1.0000E+00
      15      0      6     17        -15          6      6.0000E+03      1.0000E+00

 NUMBER OF ACTIVE FARM WELLS:       15

 FARM-ID  NUMBER OF WELLS PER FARM  TOTAL MAX.CAPACITY PER FARM
       1                         3                   15000.0000
       2                         3                    6000.0000
       3                         2                    6000.0000
       4                         2                    8000.0000
       5                         3                   15000.0000
       6                         2                   16000.0000
       7                         0                       0.0000
       8                         0                       0.0000
 Reading list on unit  20
 LIST SCALING FACTOR= 0.95000    
 (THE SCALE FACTOR WAS APPLIED TO FIELDS 2 - 7)
 Reading list on unit  30
 Reading list on unit  40

  REF. EVAPOTRANSPIRATION =  4.840000E-03
 Reading list on unit  50

Transpiratory and Evaporative Fractions of Crop Consumptive Use
    % Transpiration % Evap. for Precip. % Evap. for Irrig.
    1          0.000          1.000          0.500
    2          0.950          0.050          0.050
    3          0.661          0.339          0.339
    4          0.125          0.875          0.875
    5          0.927          0.073          0.000
    6          0.500          0.500          0.000
 Reading list on unit  60

FRACTIONS OF IN-EFFICIENT LOSSES TO SW-RUNOFF FROM 
     PRECIPITATION:  IRRIGATION:
    1          0.500          0.600
    2          0.400          0.300
    3          0.600          0.500
    4          0.700          0.600
    5          0.500          0.000
    6          0.300          0.000

       PRECIPITATION FLUX =  8.000000E-05

 OPENING FILE ON UNIT  99:
 NRDV.IN                                                                                                                                                                                                                                                                                                                                                                                                                                                                                                             
 READING SCALE FACTOR LIST ON UNIT  80
 FIELD     SCALE FACTOR
     1       1.0000    
     2       4.0000    
     3       1.0000    
     4       1.0000    

UNRANKED LIST OF NON-ROUTED DELIVERIES TO FARMS [L3]:
TYPE:             1

FARM-ID  VOLUME:
      1   6.000E+04
      2   6.000E+04
      3   8.000E+04
      4   4.000E+04
      5   4.000E+04
      6   8.000E+04
      7   0.000E+00
      8   0.000E+00

FARM-ID  PRIORITY RANK OF NRD-TYPE:
      1           1
      2           1
      3           1
      4           1
      5           1
      6           1
      7           1
      8           1

FARM-ID  USE-FLAG:
         0 = SUFFICIENT USE
         1 = ABSOLUTE USE (RECHARGE SURPLUS BACK INTO CANAL)
         2 = ABSOLUTE USE (INJECT SURPLUS INTO FARM-WELLS)
      1           0
      2           0
      3           0
      4           0
      5           0
      6           0
      7           0
      8           0

LIST OF NON-ROUTED DELIVERIES IN RANKED SEQUENCE [L3/T]:

FARM-ID  RATE:
      1   1.972E+03
      2   1.972E+03
      3   2.630E+03
      4   1.315E+03
      5   1.315E+03
      6   2.630E+03
      7   0.000E+00
      8   0.000E+00

FARM-ID  USE-FLAG:
         0 = SUFFICIENT USE
         1 = ABSOLUTE USE (RECHARGE SURPLUS BACK INTO CANAL)
         2 = ABSOLUTE USE (INJECT SURPLUS INTO FARM-WELLS)
      1           0
      2           0
      3           0
      4           0
      5           0
      6           0
      7           0
      8           0

FARM ALLOTMENT HEIGHT [L]:   0.019
 
 SOLVING FOR HEAD 
 TIMESTEP FLAG ... =           0          21           1           1
 TIMESTEP FLAG ... =           1          21           1           2
 TIMESTEP FLAG ... =           2          21           1           3
 TIMESTEP FLAG ... =           3          21           1           4
 TIMESTEP FLAG ... =           4          21           1           5
 TIMESTEP FLAG ... =           5          21           1           6
 TIMESTEP FLAG ... =           6          21           1           7


     7 CALLS TO PCG ROUTINE FOR TIME STEP   1 IN STRESS PERIOD   21
    27 TOTAL ITERATIONS

 OUTPUT CONTROL FOR STRESS PERIOD   21   TIME STEP   1
    SAVE BUDGET
 UBDSV1 SAVING "         STORAGE" ON UNIT  70 AT TIME STEP  1, STRESS PERIOD  21
 UBDSV2 SAVING "   CONSTANT HEAD" ON UNIT  70 AT TIME STEP  1, STRESS PERIOD  21
 UBDSV1 SAVING "FLOW RIGHT FACE " ON UNIT  70 AT TIME STEP  1, STRESS PERIOD  21
 UBDSV1 SAVING "FLOW FRONT FACE " ON UNIT  70 AT TIME STEP  1, STRESS PERIOD  21
 UBDSV1 SAVING "FLOW LOWER FACE " ON UNIT  70 AT TIME STEP  1, STRESS PERIOD  21
 UBDSV4 SAVING " HEAD DEP BOUNDS" ON UNIT  70 AT TIME STEP  1, STRESS PERIOD  21
 UBUDSV SAVING "    UZF INFILTR." ON UNIT 61 AT TIME STEP  1, STRESS PERIOD   21
 UBUDSV SAVING "    UZF RECHARGE" ON UNIT 61 AT TIME STEP  1, STRESS PERIOD   21
 UBDSV3 SAVING "    UZF RECHARGE" ON UNIT  70 AT TIME STEP  1, STRESS PERIOD  21
 UBUDSV SAVING " SURFACE LEAKAGE" ON UNIT 61 AT TIME STEP  1, STRESS PERIOD   21
 UBDSV3 SAVING " SURFACE LEAKAGE" ON UNIT  70 AT TIME STEP  1, STRESS PERIOD  21
 UBDSV2 SAVING "  STREAM LEAKAGE" ON UNIT  70 AT TIME STEP  1, STRESS PERIOD  21



 UBDSV4 SAVING "             MNW" ON UNIT  70 AT TIME STEP  1, STRESS PERIOD  21
 UBDSV4 SAVING "      FARM WELLS" ON UNIT  70 AT TIME STEP  1, STRESS PERIOD  21
 UBDSV3 SAVING "FARM  NET  RECH." ON UNIT  70 AT TIME STEP  1, STRESS PERIOD  21
 
 SOLVING FOR HEAD 
 TIMESTEP FLAG ... =           7          21           2           1
 TIMESTEP FLAG ... =           8          21           2           2
 TIMESTEP FLAG ... =           9          21           2           3
 TIMESTEP FLAG ... =          10          21           2           4
 TIMESTEP FLAG ... =          11          21           2           5
 TIMESTEP FLAG ... =          12          21           2           6
     6 CALLS TO PCG ROUTINE FOR TIME STEP   2 IN STRESS PERIOD   21
    20 TOTAL ITERATIONS

 OUTPUT CONTROL FOR STRESS PERIOD   21   TIME STEP   2
    PRINT BUDGET
    SAVE HEAD FOR ALL LAYERS
    SAVE BUDGET
 UBDSV1 SAVING "         STORAGE" ON UNIT  70 AT TIME STEP  2, STRESS PERIOD  21
 UBDSV2 SAVING "   CONSTANT HEAD" ON UNIT  70 AT TIME STEP  2, STRESS PERIOD  21
 UBDSV1 SAVING "FLOW RIGHT FACE " ON UNIT  70 AT TIME STEP  2, STRESS PERIOD  21
 UBDSV1 SAVING "FLOW FRONT FACE " ON UNIT  70 AT TIME STEP  2, STRESS PERIOD  21
 UBDSV1 SAVING "FLOW LOWER FACE " ON UNIT  70 AT TIME STEP  2, STRESS PERIOD  21
 UBDSV4 SAVING " HEAD DEP BOUNDS" ON UNIT  70 AT TIME STEP  2, STRESS PERIOD  21
 UBUDSV SAVING "    UZF INFILTR." ON UNIT 61 AT TIME STEP  2, STRESS PERIOD   21
 UBUDSV SAVING "    UZF RECHARGE" ON UNIT 61 AT TIME STEP  2, STRESS PERIOD   21
 UBDSV3 SAVING "    UZF RECHARGE" ON UNIT  70 AT TIME STEP  2, STRESS PERIOD  21
 UBUDSV SAVING " SURFACE LEAKAGE" ON UNIT 61 AT TIME STEP  2, STRESS PERIOD   21
 UBDSV3 SAVING " SURFACE LEAKAGE" ON UNIT  70 AT TIME STEP  2, STRESS PERIOD  21


UNSATURATED ZONE PACKAGE VOLUMETRIC BUDGET FOR  TIME STEP    2 STRESS PERIOD   21
  ------------------------------------------------------------------------------



     CUMULATIVE VOLUMES      L**3       RATES FOR THIS TIME STEP      L**3/T
     ------------------                 ------------------------

           IN:                                      IN:
           ---                                      ---
        INFILTRATION =     1829948.0694          INFILTRATION =        1727.0463

          OUT:                                     OUT:
          ----                                     ----
              UZF ET =       0.0000E+00                UZF ET =       0.0000E+00
        UZF RECHARGE =     1368013.3314          UZF RECHARGE =        1082.3463

            IN - OUT =      461934.7380              IN - OUT =         644.6999

          STORAGE:                                 STORAGE:
          --------                                 --------
      STORAGE CHANGE =      461879.4056        STORAGE CHANGE =         644.6995

 PERCENT DISCREPANCY IS DIFFERENCE BETWEEN IN-OUT MINUS CHANGE IN STORAGE
 DIVIDED BY THE AVERAGE OF IN AND OUT TIMES 100

 PERCENT DISCREPANCY =           0.00     PERCENT DISCREPANCY =           0.00






 UBDSV2 SAVING "  STREAM LEAKAGE" ON UNIT  70 AT TIME STEP  2, STRESS PERIOD  21



 UBDSV4 SAVING "             MNW" ON UNIT  70 AT TIME STEP  2, STRESS PERIOD  21
 UBDSV4 SAVING "      FARM WELLS" ON UNIT  70 AT TIME STEP  2, STRESS PERIOD  21
 UBDSV3 SAVING "FARM  NET  RECH." ON UNIT  70 AT TIME STEP  2, STRESS PERIOD  21

 HEAD WILL BE SAVED ON UNIT   22 AT END OF TIME STEP   2, STRESS PERIOD   21
1
  VOLUMETRIC BUDGET FOR ENTIRE MODEL AT END OF TIME STEP  2 IN STRESS PERIOD  21
  ------------------------------------------------------------------------------

     CUMULATIVE VOLUMES      L**3       RATES FOR THIS TIME STEP      L**3/T
     ------------------                 ------------------------

           IN:                                      IN:
           ---                                      ---
             STORAGE =    12854028.0000               STORAGE =       28432.0098
       CONSTANT HEAD =           0.0000         CONSTANT HEAD =           0.0000
     HEAD DEP BOUNDS =     3975775.7500       HEAD DEP BOUNDS =        8251.2031
        UZF RECHARGE =     1368013.2500          UZF RECHARGE =        1082.3463
               GW ET =           0.0000                 GW ET =           0.0000
     SURFACE LEAKAGE =           0.0000       SURFACE LEAKAGE =           0.0000
      STREAM LEAKAGE =     7925609.5000        STREAM LEAKAGE =       17564.8008
                 MNW =       33890.9609                   MNW =           0.0000
          FARM WELLS =           0.0000            FARM WELLS =           0.0000
    FARM  NET  RECH. =     9356840.0000      FARM  NET  RECH. =       10683.3184

            TOTAL IN =    35514160.0000              TOTAL IN =       66013.6797

          OUT:                                     OUT:
          ----                                     ----
             STORAGE =     4630439.0000               STORAGE =         424.1638
       CONSTANT HEAD =           0.0000         CONSTANT HEAD =           0.0000
     HEAD DEP BOUNDS =    11131254.0000       HEAD DEP BOUNDS =       15578.3857
        UZF RECHARGE =           0.0000          UZF RECHARGE =           0.0000
               GW ET =           0.0000                 GW ET =           0.0000
     SURFACE LEAKAGE =        2869.4824       SURFACE LEAKAGE =           0.0000
      STREAM LEAKAGE =     1969958.0000        STREAM LEAKAGE =         136.6724
                 MNW =     6317331.5000                   MNW =       21509.2520
          FARM WELLS =     6424603.5000            FARM WELLS =       25049.3750
    FARM  NET  RECH. =     5037774.5000      FARM  NET  RECH. =        3318.8730

           TOTAL OUT =    35514232.0000             TOTAL OUT =       66016.7266

            IN - OUT =         -72.0000              IN - OUT =          -3.0469

 PERCENT DISCREPANCY =           0.00     PERCENT DISCREPANCY =           0.00






          TIME SUMMARY AT END OF TIME STEP   2 IN STRESS PERIOD   21
                    SECONDS     MINUTES      HOURS       DAYS        YEARS
                    -----------------------------------------------------------
   TIME STEP LENGTH 1.31414E+06  21902.      365.04      15.210     4.16427E-02
 STRESS PERIOD TIME 2.62829E+06  43805.      730.08      30.420     8.32854E-02
         TOTAL TIME 5.51941E+07 9.19901E+05  15332.      638.82      1.7490    
1
1
                            STRESS PERIOD NO.   22, LENGTH =   30.42000    
                            -----------------------------------------------

                              NUMBER OF TIME STEPS =     2

                               MULTIPLIER FOR DELT =     1.000

                            INITIAL TIME STEP SIZE =   15.21000    

 REUSING NON-PARAMETER GHB CELLS FROM LAST STRESS PERIOD

     92 GHB CELLS

 REUSING STREAM SEGMENT DATA FROM LAST STRESS PERIOD
 USING INFILTRATION RATE FROM PREVIOUS STRESS 
 PERIOD.CURRENT PERIOD IS:           22

 REUSING MNW7  FROM LAST STRESS PERIOD

 Parameter:  WELLS1
 WELL NO. LAYER    ROW    COL  F-WELL ID    FARM ID         QMAX         QMAXRESET       
 ----------------------------------------------------------------------------------------
       1      1      5      6          1          1      5.0000E+03      0.0000E+00
       2      1      8      6          2          1      5.0000E+03      0.0000E+00
       3      1      8      9          3          1      5.0000E+03      0.0000E+00
       4      1      5      9          4          2      3.0000E+03      0.0000E+00
       5      1      6     10          5          2      2.0000E+03      0.0000E+00
       6      1      7     11          6          2      1.0000E+03      0.0000E+00
       7      1     18      3          7          3      2.0000E+03      0.0000E+00
       8      1     21      3          8          3      4.0000E+03      0.0000E+00
       9      1     18     19          9          4      3.0000E+03      0.0000E+00
      10      1     21     19         10          4      5.0000E+03      0.0000E+00
      11      0      6      2        -11          5      5.0000E+03      1.0000E+00
      12      0      8      2        -12          5      5.0000E+03      1.0000E+00
      13      0     10      2        -13          5      5.0000E+03      1.0000E+00
      14      0      3     19        -14          6      1.0000E+04      1.0000E+00
      15      0      6     17        -15          6      6.0000E+03      1.0000E+00

 NUMBER OF ACTIVE FARM WELLS:       15

 FARM-ID  NUMBER OF WELLS PER FARM  TOTAL MAX.CAPACITY PER FARM
       1                         3                   15000.0000
       2                         3                    6000.0000
       3                         2                    6000.0000
       4                         2                    8000.0000
       5                         3                   15000.0000
       6                         2                   16000.0000
       7                         0                       0.0000
       8                         0                       0.0000
 Reading list on unit  20
 LIST SCALING FACTOR= 0.90000    
 (THE SCALE FACTOR WAS APPLIED TO FIELDS 2 - 7)
 Reading list on unit  30
 Reading list on unit  40

  REF. EVAPOTRANSPIRATION =  3.490000E-03
 Reading list on unit  50

Transpiratory and Evaporative Fractions of Crop Consumptive Use
    % Transpiration % Evap. for Precip. % Evap. for Irrig.
    1          0.000          1.000          0.500
    2          0.945          0.055          0.055
    3          0.894          0.106          0.106
    4          0.125          0.875          0.875
    5          0.927          0.073          0.000
    6          0.300          0.700          0.000
 Reading list on unit  60

FRACTIONS OF IN-EFFICIENT LOSSES TO SW-RUNOFF FROM 
     PRECIPITATION:  IRRIGATION:
    1          0.500          0.600
    2          0.400          0.300
    3          0.600          0.500
    4          0.700          0.600
    5          0.500          0.000
    6          0.300          0.000

       PRECIPITATION FLUX =  3.900000E-04

 OPENING FILE ON UNIT  99:
 NRDV.IN                                                                                                                                                                                                                                                                                                                                                                                                                                                                                                             
 READING SCALE FACTOR LIST ON UNIT  80
 FIELD     SCALE FACTOR
     1       1.0000    
     2       3.0000    
     3       1.0000    
     4       1.0000    

UNRANKED LIST OF NON-ROUTED DELIVERIES TO FARMS [L3]:
TYPE:             1

FARM-ID  VOLUME:
      1   4.500E+04
      2   4.500E+04
      3   6.000E+04
      4   3.000E+04
      5   3.000E+04
      6   6.000E+04
      7   0.000E+00
      8   0.000E+00

FARM-ID  PRIORITY RANK OF NRD-TYPE:
      1           1
      2           1
      3           1
      4           1
      5           1
      6           1
      7           1
      8           1

FARM-ID  USE-FLAG:
         0 = SUFFICIENT USE
         1 = ABSOLUTE USE (RECHARGE SURPLUS BACK INTO CANAL)
         2 = ABSOLUTE USE (INJECT SURPLUS INTO FARM-WELLS)
      1           0
      2           0
      3           0
      4           0
      5           0
      6           0
      7           0
      8           0

LIST OF NON-ROUTED DELIVERIES IN RANKED SEQUENCE [L3/T]:

FARM-ID  RATE:
      1   1.479E+03
      2   1.479E+03
      3   1.972E+03
      4   9.862E+02
      5   9.862E+02
      6   1.972E+03
      7   0.000E+00
      8   0.000E+00

FARM-ID  USE-FLAG:
         0 = SUFFICIENT USE
         1 = ABSOLUTE USE (RECHARGE SURPLUS BACK INTO CANAL)
         2 = ABSOLUTE USE (INJECT SURPLUS INTO FARM-WELLS)
      1           0
      2           0
      3           0
      4           0
      5           0
      6           0
      7           0
      8           0

FARM ALLOTMENT HEIGHT [L]:   0.019
 
 SOLVING FOR HEAD 
 TIMESTEP FLAG ... =           0          22           1           1
 TIMESTEP FLAG ... =           1          22           1           2
 TIMESTEP FLAG ... =           2          22           1           3
 TIMESTEP FLAG ... =           3          22           1           4
 TIMESTEP FLAG ... =           4          22           1           5
 TIMESTEP FLAG ... =           5          22           1           6
 TIMESTEP FLAG ... =           6          22           1           7


     7 CALLS TO PCG ROUTINE FOR TIME STEP   1 IN STRESS PERIOD   22
    29 TOTAL ITERATIONS

 OUTPUT CONTROL FOR STRESS PERIOD   22   TIME STEP   1
    SAVE BUDGET
 UBDSV1 SAVING "         STORAGE" ON UNIT  70 AT TIME STEP  1, STRESS PERIOD  22
 UBDSV2 SAVING "   CONSTANT HEAD" ON UNIT  70 AT TIME STEP  1, STRESS PERIOD  22
 UBDSV1 SAVING "FLOW RIGHT FACE " ON UNIT  70 AT TIME STEP  1, STRESS PERIOD  22
 UBDSV1 SAVING "FLOW FRONT FACE " ON UNIT  70 AT TIME STEP  1, STRESS PERIOD  22
 UBDSV1 SAVING "FLOW LOWER FACE " ON UNIT  70 AT TIME STEP  1, STRESS PERIOD  22
 UBDSV4 SAVING " HEAD DEP BOUNDS" ON UNIT  70 AT TIME STEP  1, STRESS PERIOD  22
 UBUDSV SAVING "    UZF INFILTR." ON UNIT 61 AT TIME STEP  1, STRESS PERIOD   22
 UBUDSV SAVING "    UZF RECHARGE" ON UNIT 61 AT TIME STEP  1, STRESS PERIOD   22
 UBDSV3 SAVING "    UZF RECHARGE" ON UNIT  70 AT TIME STEP  1, STRESS PERIOD  22
 UBUDSV SAVING " SURFACE LEAKAGE" ON UNIT 61 AT TIME STEP  1, STRESS PERIOD   22
 UBDSV3 SAVING " SURFACE LEAKAGE" ON UNIT  70 AT TIME STEP  1, STRESS PERIOD  22
 UBDSV2 SAVING "  STREAM LEAKAGE" ON UNIT  70 AT TIME STEP  1, STRESS PERIOD  22



 UBDSV4 SAVING "             MNW" ON UNIT  70 AT TIME STEP  1, STRESS PERIOD  22
 UBDSV4 SAVING "      FARM WELLS" ON UNIT  70 AT TIME STEP  1, STRESS PERIOD  22
 UBDSV3 SAVING "FARM  NET  RECH." ON UNIT  70 AT TIME STEP  1, STRESS PERIOD  22
 
 SOLVING FOR HEAD 
 TIMESTEP FLAG ... =           7          22           2           1
 TIMESTEP FLAG ... =           8          22           2           2
 TIMESTEP FLAG ... =           9          22           2           3
 TIMESTEP FLAG ... =          10          22           2           4
 TIMESTEP FLAG ... =          11          22           2           5
 TIMESTEP FLAG ... =          12          22           2           6
     6 CALLS TO PCG ROUTINE FOR TIME STEP   2 IN STRESS PERIOD   22
    21 TOTAL ITERATIONS

 OUTPUT CONTROL FOR STRESS PERIOD   22   TIME STEP   2
    SAVE BUDGET
 UBDSV1 SAVING "         STORAGE" ON UNIT  70 AT TIME STEP  2, STRESS PERIOD  22
 UBDSV2 SAVING "   CONSTANT HEAD" ON UNIT  70 AT TIME STEP  2, STRESS PERIOD  22
 UBDSV1 SAVING "FLOW RIGHT FACE " ON UNIT  70 AT TIME STEP  2, STRESS PERIOD  22
 UBDSV1 SAVING "FLOW FRONT FACE " ON UNIT  70 AT TIME STEP  2, STRESS PERIOD  22
 UBDSV1 SAVING "FLOW LOWER FACE " ON UNIT  70 AT TIME STEP  2, STRESS PERIOD  22
 UBDSV4 SAVING " HEAD DEP BOUNDS" ON UNIT  70 AT TIME STEP  2, STRESS PERIOD  22
 UBUDSV SAVING "    UZF INFILTR." ON UNIT 61 AT TIME STEP  2, STRESS PERIOD   22
 UBUDSV SAVING "    UZF RECHARGE" ON UNIT 61 AT TIME STEP  2, STRESS PERIOD   22
 UBDSV3 SAVING "    UZF RECHARGE" ON UNIT  70 AT TIME STEP  2, STRESS PERIOD  22
 UBUDSV SAVING " SURFACE LEAKAGE" ON UNIT 61 AT TIME STEP  2, STRESS PERIOD   22
 UBDSV3 SAVING " SURFACE LEAKAGE" ON UNIT  70 AT TIME STEP  2, STRESS PERIOD  22


UNSATURATED ZONE PACKAGE VOLUMETRIC BUDGET FOR  TIME STEP    2 STRESS PERIOD   22
  ------------------------------------------------------------------------------



     CUMULATIVE VOLUMES      L**3       RATES FOR THIS TIME STEP      L**3/T
     ------------------                 ------------------------

           IN:                                      IN:
           ---                                      ---
        INFILTRATION =     1893534.9993          INFILTRATION =        2090.3001

          OUT:                                     OUT:
          ----                                     ----
              UZF ET =       0.0000E+00                UZF ET =       0.0000E+00
        UZF RECHARGE =     1396149.9879          UZF RECHARGE =         879.7733

            IN - OUT =      497385.0114              IN - OUT =        1210.5268

          STORAGE:                                 STORAGE:
          --------                                 --------
      STORAGE CHANGE =      497329.0470        STORAGE CHANGE =        1210.5069

 PERCENT DISCREPANCY IS DIFFERENCE BETWEEN IN-OUT MINUS CHANGE IN STORAGE
 DIVIDED BY THE AVERAGE OF IN AND OUT TIMES 100

 PERCENT DISCREPANCY =           0.00     PERCENT DISCREPANCY =           0.00






 UBDSV2 SAVING "  STREAM LEAKAGE" ON UNIT  70 AT TIME STEP  2, STRESS PERIOD  22



 UBDSV4 SAVING "             MNW" ON UNIT  70 AT TIME STEP  2, STRESS PERIOD  22
 UBDSV4 SAVING "      FARM WELLS" ON UNIT  70 AT TIME STEP  2, STRESS PERIOD  22
 UBDSV3 SAVING "FARM  NET  RECH." ON UNIT  70 AT TIME STEP  2, STRESS PERIOD  22
1
  VOLUMETRIC BUDGET FOR ENTIRE MODEL AT END OF TIME STEP  2 IN STRESS PERIOD  22
  ------------------------------------------------------------------------------

     CUMULATIVE VOLUMES      L**3       RATES FOR THIS TIME STEP      L**3/T
     ------------------                 ------------------------

           IN:                                      IN:
           ---                                      ---
             STORAGE =    13454696.0000               STORAGE =       18765.6582
       CONSTANT HEAD =           0.0000         CONSTANT HEAD =           0.0000
     HEAD DEP BOUNDS =     4231051.5000       HEAD DEP BOUNDS =        8443.3750
        UZF RECHARGE =     1396149.8750          UZF RECHARGE =         879.7732
               GW ET =           0.0000                 GW ET =           0.0000
     SURFACE LEAKAGE =           0.0000       SURFACE LEAKAGE =           0.0000
      STREAM LEAKAGE =     8471414.0000        STREAM LEAKAGE =       17991.8789
                 MNW =       33890.9609                   MNW =           0.0000
          FARM WELLS =           0.0000            FARM WELLS =           0.0000
    FARM  NET  RECH. =     9673802.0000      FARM  NET  RECH. =       10441.6348

            TOTAL IN =    37261004.0000              TOTAL IN =       56522.3203

          OUT:                                     OUT:
          ----                                     ----
             STORAGE =     4711902.5000               STORAGE =        1728.6001
       CONSTANT HEAD =           0.0000         CONSTANT HEAD =           0.0000
     HEAD DEP BOUNDS =    11603663.0000       HEAD DEP BOUNDS =       15516.0908
        UZF RECHARGE =           0.0000          UZF RECHARGE =           0.0000
               GW ET =           0.0000                 GW ET =           0.0000
     SURFACE LEAKAGE =        2869.4824       SURFACE LEAKAGE =           0.0000
      STREAM LEAKAGE =     1977517.8750        STREAM LEAKAGE =         284.0257
                 MNW =     6744762.5000                   MNW =       14051.0010
          FARM WELLS =     7124566.5000            FARM WELLS =       23014.5820
    FARM  NET  RECH. =     5095851.5000      FARM  NET  RECH. =        1930.3187

           TOTAL OUT =    37261132.0000             TOTAL OUT =       56524.6211

            IN - OUT =        -128.0000              IN - OUT =          -2.3008

 PERCENT DISCREPANCY =           0.00     PERCENT DISCREPANCY =           0.00






          TIME SUMMARY AT END OF TIME STEP   2 IN STRESS PERIOD   22
                    SECONDS     MINUTES      HOURS       DAYS        YEARS
                    -----------------------------------------------------------
   TIME STEP LENGTH 1.31414E+06  21902.      365.04      15.210     4.16427E-02
 STRESS PERIOD TIME 2.62829E+06  43805.      730.08      30.420     8.32854E-02
         TOTAL TIME 5.78223E+07 9.63706E+05  16062.      669.24      1.8323    
1
1
                            STRESS PERIOD NO.   23, LENGTH =   30.42000    
                            -----------------------------------------------

                              NUMBER OF TIME STEPS =     2

                               MULTIPLIER FOR DELT =     1.000

                            INITIAL TIME STEP SIZE =   15.21000    

 REUSING NON-PARAMETER GHB CELLS FROM LAST STRESS PERIOD

     92 GHB CELLS

 REUSING STREAM SEGMENT DATA FROM LAST STRESS PERIOD
 USING INFILTRATION RATE FROM PREVIOUS STRESS 
 PERIOD.CURRENT PERIOD IS:           23

 REUSING MNW7  FROM LAST STRESS PERIOD

 Parameter:  WELLS1
 WELL NO. LAYER    ROW    COL  F-WELL ID    FARM ID         QMAX         QMAXRESET       
 ----------------------------------------------------------------------------------------
       1      1      5      6          1          1      5.0000E+03      0.0000E+00
       2      1      8      6          2          1      5.0000E+03      0.0000E+00
       3      1      8      9          3          1      5.0000E+03      0.0000E+00
       4      1      5      9          4          2      3.0000E+03      0.0000E+00
       5      1      6     10          5          2      2.0000E+03      0.0000E+00
       6      1      7     11          6          2      1.0000E+03      0.0000E+00
       7      1     18      3          7          3      2.0000E+03      0.0000E+00
       8      1     21      3          8          3      4.0000E+03      0.0000E+00
       9      1     18     19          9          4      3.0000E+03      0.0000E+00
      10      1     21     19         10          4      5.0000E+03      0.0000E+00
      11      0      6      2        -11          5      5.0000E+03      1.0000E+00
      12      0      8      2        -12          5      5.0000E+03      1.0000E+00
      13      0     10      2        -13          5      5.0000E+03      1.0000E+00
      14      0      3     19        -14          6      1.0000E+04      1.0000E+00
      15      0      6     17        -15          6      6.0000E+03      1.0000E+00

 NUMBER OF ACTIVE FARM WELLS:       15

 FARM-ID  NUMBER OF WELLS PER FARM  TOTAL MAX.CAPACITY PER FARM
       1                         3                   15000.0000
       2                         3                    6000.0000
       3                         2                    6000.0000
       4                         2                    8000.0000
       5                         3                   15000.0000
       6                         2                   16000.0000
       7                         0                       0.0000
       8                         0                       0.0000
 Reading list on unit  20
 LIST SCALING FACTOR= 0.80000    
 (THE SCALE FACTOR WAS APPLIED TO FIELDS 2 - 7)
 Reading list on unit  30
 Reading list on unit  40

  REF. EVAPOTRANSPIRATION =  1.540000E-03
 Reading list on unit  50

Transpiratory and Evaporative Fractions of Crop Consumptive Use
    % Transpiration % Evap. for Precip. % Evap. for Irrig.
    1          0.000          1.000          0.500
    2          0.000          1.000          0.350
    3          0.954          0.046          0.046
    4          0.125          0.875          0.875
    5          0.927          0.073          0.000
    6          0.200          0.800          0.000
 Reading list on unit  60

FRACTIONS OF IN-EFFICIENT LOSSES TO SW-RUNOFF FROM 
     PRECIPITATION:  IRRIGATION:
    1          0.500          0.600
    2          0.400          0.300
    3          0.600          0.500
    4          0.700          0.600
    5          0.500          0.000
    6          0.300          0.000

       PRECIPITATION FLUX =  1.490000E-03

 OPENING FILE ON UNIT  99:
 NRDV.IN                                                                                                                                                                                                                                                                                                                                                                                                                                                                                                             
 READING SCALE FACTOR LIST ON UNIT  80
 FIELD     SCALE FACTOR
     1       1.0000    
     2       2.0000    
     3       1.0000    
     4       1.0000    

UNRANKED LIST OF NON-ROUTED DELIVERIES TO FARMS [L3]:
TYPE:             1

FARM-ID  VOLUME:
      1   3.000E+04
      2   3.000E+04
      3   4.000E+04
      4   2.000E+04
      5   2.000E+04
      6   4.000E+04
      7   0.000E+00
      8   0.000E+00

FARM-ID  PRIORITY RANK OF NRD-TYPE:
      1           1
      2           1
      3           1
      4           1
      5           1
      6           1
      7           1
      8           1

FARM-ID  USE-FLAG:
         0 = SUFFICIENT USE
         1 = ABSOLUTE USE (RECHARGE SURPLUS BACK INTO CANAL)
         2 = ABSOLUTE USE (INJECT SURPLUS INTO FARM-WELLS)
      1           0
      2           0
      3           0
      4           0
      5           0
      6           0
      7           0
      8           0

LIST OF NON-ROUTED DELIVERIES IN RANKED SEQUENCE [L3/T]:

FARM-ID  RATE:
      1   9.862E+02
      2   9.862E+02
      3   1.315E+03
      4   6.575E+02
      5   6.575E+02
      6   1.315E+03
      7   0.000E+00
      8   0.000E+00

FARM-ID  USE-FLAG:
         0 = SUFFICIENT USE
         1 = ABSOLUTE USE (RECHARGE SURPLUS BACK INTO CANAL)
         2 = ABSOLUTE USE (INJECT SURPLUS INTO FARM-WELLS)
      1           0
      2           0
      3           0
      4           0
      5           0
      6           0
      7           0
      8           0

FARM ALLOTMENT HEIGHT [L]:   0.000
 
 SOLVING FOR HEAD 
 TIMESTEP FLAG ... =           0          23           1           1
 TIMESTEP FLAG ... =           1          23           1           2
 TIMESTEP FLAG ... =           2          23           1           3
 TIMESTEP FLAG ... =           3          23           1           4
 TIMESTEP FLAG ... =           4          23           1           5
 TIMESTEP FLAG ... =           5          23           1           6
 TIMESTEP FLAG ... =           6          23           1           7
 TIMESTEP FLAG ... =           7          23           1           8


     8 CALLS TO PCG ROUTINE FOR TIME STEP   1 IN STRESS PERIOD   23
    33 TOTAL ITERATIONS

 OUTPUT CONTROL FOR STRESS PERIOD   23   TIME STEP   1
    SAVE BUDGET
 UBDSV1 SAVING "         STORAGE" ON UNIT  70 AT TIME STEP  1, STRESS PERIOD  23
 UBDSV2 SAVING "   CONSTANT HEAD" ON UNIT  70 AT TIME STEP  1, STRESS PERIOD  23
 UBDSV1 SAVING "FLOW RIGHT FACE " ON UNIT  70 AT TIME STEP  1, STRESS PERIOD  23
 UBDSV1 SAVING "FLOW FRONT FACE " ON UNIT  70 AT TIME STEP  1, STRESS PERIOD  23
 UBDSV1 SAVING "FLOW LOWER FACE " ON UNIT  70 AT TIME STEP  1, STRESS PERIOD  23
 UBDSV4 SAVING " HEAD DEP BOUNDS" ON UNIT  70 AT TIME STEP  1, STRESS PERIOD  23
 UBUDSV SAVING "    UZF INFILTR." ON UNIT 61 AT TIME STEP  1, STRESS PERIOD   23
 UBUDSV SAVING "    UZF RECHARGE" ON UNIT 61 AT TIME STEP  1, STRESS PERIOD   23
 UBDSV3 SAVING "    UZF RECHARGE" ON UNIT  70 AT TIME STEP  1, STRESS PERIOD  23
 UBUDSV SAVING " SURFACE LEAKAGE" ON UNIT 61 AT TIME STEP  1, STRESS PERIOD   23
 UBDSV3 SAVING " SURFACE LEAKAGE" ON UNIT  70 AT TIME STEP  1, STRESS PERIOD  23
 UBDSV2 SAVING "  STREAM LEAKAGE" ON UNIT  70 AT TIME STEP  1, STRESS PERIOD  23



 UBDSV4 SAVING "             MNW" ON UNIT  70 AT TIME STEP  1, STRESS PERIOD  23
 UBDSV4 SAVING "      FARM WELLS" ON UNIT  70 AT TIME STEP  1, STRESS PERIOD  23
 UBDSV3 SAVING "FARM  NET  RECH." ON UNIT  70 AT TIME STEP  1, STRESS PERIOD  23
 
 SOLVING FOR HEAD 
 TIMESTEP FLAG ... =           8          23           2           1
 TIMESTEP FLAG ... =           9          23           2           2
 TIMESTEP FLAG ... =          10          23           2           3
 TIMESTEP FLAG ... =          11          23           2           4
 TIMESTEP FLAG ... =          12          23           2           5
 TIMESTEP FLAG ... =          13          23           2           6
     6 CALLS TO PCG ROUTINE FOR TIME STEP   2 IN STRESS PERIOD   23
    21 TOTAL ITERATIONS

 OUTPUT CONTROL FOR STRESS PERIOD   23   TIME STEP   2
    SAVE BUDGET
 UBDSV1 SAVING "         STORAGE" ON UNIT  70 AT TIME STEP  2, STRESS PERIOD  23
 UBDSV2 SAVING "   CONSTANT HEAD" ON UNIT  70 AT TIME STEP  2, STRESS PERIOD  23
 UBDSV1 SAVING "FLOW RIGHT FACE " ON UNIT  70 AT TIME STEP  2, STRESS PERIOD  23
 UBDSV1 SAVING "FLOW FRONT FACE " ON UNIT  70 AT TIME STEP  2, STRESS PERIOD  23
 UBDSV1 SAVING "FLOW LOWER FACE " ON UNIT  70 AT TIME STEP  2, STRESS PERIOD  23
 UBDSV4 SAVING " HEAD DEP BOUNDS" ON UNIT  70 AT TIME STEP  2, STRESS PERIOD  23
 UBUDSV SAVING "    UZF INFILTR." ON UNIT 61 AT TIME STEP  2, STRESS PERIOD   23
 UBUDSV SAVING "    UZF RECHARGE" ON UNIT 61 AT TIME STEP  2, STRESS PERIOD   23
 UBDSV3 SAVING "    UZF RECHARGE" ON UNIT  70 AT TIME STEP  2, STRESS PERIOD  23
 UBUDSV SAVING " SURFACE LEAKAGE" ON UNIT 61 AT TIME STEP  2, STRESS PERIOD   23
 UBDSV3 SAVING " SURFACE LEAKAGE" ON UNIT  70 AT TIME STEP  2, STRESS PERIOD  23


UNSATURATED ZONE PACKAGE VOLUMETRIC BUDGET FOR  TIME STEP    2 STRESS PERIOD   23
  ------------------------------------------------------------------------------



     CUMULATIVE VOLUMES      L**3       RATES FOR THIS TIME STEP      L**3/T
     ------------------                 ------------------------

           IN:                                      IN:
           ---                                      ---
        INFILTRATION =     2050761.6805          INFILTRATION =        5184.6092

          OUT:                                     OUT:
          ----                                     ----
              UZF ET =       0.0000E+00                UZF ET =       0.0000E+00
        UZF RECHARGE =     1457492.6306          UZF RECHARGE =        2136.3482

            IN - OUT =      593269.0498              IN - OUT =        3048.2610

          STORAGE:                                 STORAGE:
          --------                                 --------
      STORAGE CHANGE =      593203.9430        STORAGE CHANGE =        3048.0398

 PERCENT DISCREPANCY IS DIFFERENCE BETWEEN IN-OUT MINUS CHANGE IN STORAGE
 DIVIDED BY THE AVERAGE OF IN AND OUT TIMES 100

 PERCENT DISCREPANCY =           0.00     PERCENT DISCREPANCY =           0.00






 UBDSV2 SAVING "  STREAM LEAKAGE" ON UNIT  70 AT TIME STEP  2, STRESS PERIOD  23



 UBDSV4 SAVING "             MNW" ON UNIT  70 AT TIME STEP  2, STRESS PERIOD  23
 UBDSV4 SAVING "      FARM WELLS" ON UNIT  70 AT TIME STEP  2, STRESS PERIOD  23
 UBDSV3 SAVING "FARM  NET  RECH." ON UNIT  70 AT TIME STEP  2, STRESS PERIOD  23
1
  VOLUMETRIC BUDGET FOR ENTIRE MODEL AT END OF TIME STEP  2 IN STRESS PERIOD  23
  ------------------------------------------------------------------------------

     CUMULATIVE VOLUMES      L**3       RATES FOR THIS TIME STEP      L**3/T
     ------------------                 ------------------------

           IN:                                      IN:
           ---                                      ---
             STORAGE =    13485891.0000               STORAGE =         234.3147
       CONSTANT HEAD =           0.0000         CONSTANT HEAD =           0.0000
     HEAD DEP BOUNDS =     4477186.0000       HEAD DEP BOUNDS =        7977.8638
        UZF RECHARGE =     1457492.5000          UZF RECHARGE =        2136.3479
               GW ET =           0.0000                 GW ET =           0.0000
     SURFACE LEAKAGE =           0.0000       SURFACE LEAKAGE =           0.0000
      STREAM LEAKAGE =     9091528.0000        STREAM LEAKAGE =       20124.7832
                 MNW =       37825.1367                   MNW =         104.6576
          FARM WELLS =           0.0000            FARM WELLS =           0.0000
    FARM  NET  RECH. =    10062828.0000      FARM  NET  RECH. =       12785.5576

            TOTAL IN =    38612752.0000              TOTAL IN =       43363.5234

          OUT:                                     OUT:
          ----                                     ----
             STORAGE =     5524321.5000               STORAGE =       25365.5781
       CONSTANT HEAD =           0.0000         CONSTANT HEAD =           0.0000
     HEAD DEP BOUNDS =    12087215.0000       HEAD DEP BOUNDS =       16018.4424
        UZF RECHARGE =           0.0000          UZF RECHARGE =           0.0000
               GW ET =           0.0000                 GW ET =           0.0000
     SURFACE LEAKAGE =        2869.4824       SURFACE LEAKAGE =           0.0000
      STREAM LEAKAGE =     1993000.2500        STREAM LEAKAGE =         592.0197
                 MNW =     6748697.0000                   MNW =         104.6576
          FARM WELLS =     7127010.5000            FARM WELLS =          46.5115
    FARM  NET  RECH. =     5129673.0000      FARM  NET  RECH. =        1232.3323

           TOTAL OUT =    38612788.0000             TOTAL OUT =       43359.5391

            IN - OUT =         -36.0000              IN - OUT =           3.9844

 PERCENT DISCREPANCY =           0.00     PERCENT DISCREPANCY =           0.01






          TIME SUMMARY AT END OF TIME STEP   2 IN STRESS PERIOD   23
                    SECONDS     MINUTES      HOURS       DAYS        YEARS
                    -----------------------------------------------------------
   TIME STEP LENGTH 1.31414E+06  21902.      365.04      15.210     4.16427E-02
 STRESS PERIOD TIME 2.62829E+06  43805.      730.08      30.420     8.32854E-02
         TOTAL TIME 6.04506E+07 1.00751E+06  16792.      699.66      1.9156    
1
1
                            STRESS PERIOD NO.   24, LENGTH =   30.42000    
                            -----------------------------------------------

                              NUMBER OF TIME STEPS =     2

                               MULTIPLIER FOR DELT =     1.000

                            INITIAL TIME STEP SIZE =   15.21000    

 REUSING NON-PARAMETER GHB CELLS FROM LAST STRESS PERIOD

     92 GHB CELLS

 REUSING STREAM SEGMENT DATA FROM LAST STRESS PERIOD
 USING INFILTRATION RATE FROM PREVIOUS STRESS 
 PERIOD.CURRENT PERIOD IS:           24

 REUSING MNW7  FROM LAST STRESS PERIOD

 Parameter:  WELLS1
 WELL NO. LAYER    ROW    COL  F-WELL ID    FARM ID         QMAX         QMAXRESET       
 ----------------------------------------------------------------------------------------
       1      1      5      6          1          1      5.0000E+03      0.0000E+00
       2      1      8      6          2          1      5.0000E+03      0.0000E+00
       3      1      8      9          3          1      5.0000E+03      0.0000E+00
       4      1      5      9          4          2      3.0000E+03      0.0000E+00
       5      1      6     10          5          2      2.0000E+03      0.0000E+00
       6      1      7     11          6          2      1.0000E+03      0.0000E+00
       7      1     18      3          7          3      2.0000E+03      0.0000E+00
       8      1     21      3          8          3      4.0000E+03      0.0000E+00
       9      1     18     19          9          4      3.0000E+03      0.0000E+00
      10      1     21     19         10          4      5.0000E+03      0.0000E+00
      11      0      6      2        -11          5      5.0000E+03      1.0000E+00
      12      0      8      2        -12          5      5.0000E+03      1.0000E+00
      13      0     10      2        -13          5      5.0000E+03      1.0000E+00
      14      0      3     19        -14          6      1.0000E+04      1.0000E+00
      15      0      6     17        -15          6      6.0000E+03      1.0000E+00

 NUMBER OF ACTIVE FARM WELLS:       15

 FARM-ID  NUMBER OF WELLS PER FARM  TOTAL MAX.CAPACITY PER FARM
       1                         3                   15000.0000
       2                         3                    6000.0000
       3                         2                    6000.0000
       4                         2                    8000.0000
       5                         3                   15000.0000
       6                         2                   16000.0000
       7                         0                       0.0000
       8                         0                       0.0000
 Reading list on unit  20
 LIST SCALING FACTOR= 0.70000    
 (THE SCALE FACTOR WAS APPLIED TO FIELDS 2 - 7)
 Reading list on unit  30
 Reading list on unit  40

  REF. EVAPOTRANSPIRATION =  9.600000E-04
 Reading list on unit  50

Transpiratory and Evaporative Fractions of Crop Consumptive Use
    % Transpiration % Evap. for Precip. % Evap. for Irrig.
    1          0.000          1.000          0.500
    2          0.000          1.000          0.350
    3          0.957          0.043          0.043
    4          0.125          0.875          0.875
    5          0.926          0.074          0.000
    6          0.200          0.800          0.000
 Reading list on unit  60

FRACTIONS OF IN-EFFICIENT LOSSES TO SW-RUNOFF FROM 
     PRECIPITATION:  IRRIGATION:
    1          0.500          0.600
    2          0.400          0.300
    3          0.600          0.500
    4          0.700          0.600
    5          0.830          0.000
    6          0.730          0.000

       PRECIPITATION FLUX =  2.100000E-03

 OPENING FILE ON UNIT  99:
 NRDV.IN                                                                                                                                                                                                                                                                                                                                                                                                                                                                                                             
 READING SCALE FACTOR LIST ON UNIT  80
 FIELD     SCALE FACTOR
     1       1.0000    
     2       1.0000    
     3       1.0000    
     4       1.0000    

UNRANKED LIST OF NON-ROUTED DELIVERIES TO FARMS [L3]:
TYPE:             1

FARM-ID  VOLUME:
      1   1.500E+04
      2   1.500E+04
      3   2.000E+04
      4   1.000E+04
      5   1.000E+04
      6   2.000E+04
      7   0.000E+00
      8   0.000E+00

FARM-ID  PRIORITY RANK OF NRD-TYPE:
      1           1
      2           1
      3           1
      4           1
      5           1
      6           1
      7           1
      8           1

FARM-ID  USE-FLAG:
         0 = SUFFICIENT USE
         1 = ABSOLUTE USE (RECHARGE SURPLUS BACK INTO CANAL)
         2 = ABSOLUTE USE (INJECT SURPLUS INTO FARM-WELLS)
      1           0
      2           0
      3           0
      4           0
      5           0
      6           0
      7           0
      8           0

LIST OF NON-ROUTED DELIVERIES IN RANKED SEQUENCE [L3/T]:

FARM-ID  RATE:
      1   4.931E+02
      2   4.931E+02
      3   6.575E+02
      4   3.287E+02
      5   3.287E+02
      6   6.575E+02
      7   0.000E+00
      8   0.000E+00

FARM-ID  USE-FLAG:
         0 = SUFFICIENT USE
         1 = ABSOLUTE USE (RECHARGE SURPLUS BACK INTO CANAL)
         2 = ABSOLUTE USE (INJECT SURPLUS INTO FARM-WELLS)
      1           0
      2           0
      3           0
      4           0
      5           0
      6           0
      7           0
      8           0

FARM ALLOTMENT HEIGHT [L]:   0.000
 
 SOLVING FOR HEAD 
 TIMESTEP FLAG ... =           0          24           1           1
 TIMESTEP FLAG ... =           1          24           1           2
 TIMESTEP FLAG ... =           2          24           1           3
 TIMESTEP FLAG ... =           3          24           1           4
 TIMESTEP FLAG ... =           4          24           1           5
 TIMESTEP FLAG ... =           5          24           1           6
 TIMESTEP FLAG ... =           6          24           1           7


     7 CALLS TO PCG ROUTINE FOR TIME STEP   1 IN STRESS PERIOD   24
    28 TOTAL ITERATIONS

 OUTPUT CONTROL FOR STRESS PERIOD   24   TIME STEP   1
    SAVE BUDGET
 UBDSV1 SAVING "         STORAGE" ON UNIT  70 AT TIME STEP  1, STRESS PERIOD  24
 UBDSV2 SAVING "   CONSTANT HEAD" ON UNIT  70 AT TIME STEP  1, STRESS PERIOD  24
 UBDSV1 SAVING "FLOW RIGHT FACE " ON UNIT  70 AT TIME STEP  1, STRESS PERIOD  24
 UBDSV1 SAVING "FLOW FRONT FACE " ON UNIT  70 AT TIME STEP  1, STRESS PERIOD  24
 UBDSV1 SAVING "FLOW LOWER FACE " ON UNIT  70 AT TIME STEP  1, STRESS PERIOD  24
 UBDSV4 SAVING " HEAD DEP BOUNDS" ON UNIT  70 AT TIME STEP  1, STRESS PERIOD  24
 UBUDSV SAVING "    UZF INFILTR." ON UNIT 61 AT TIME STEP  1, STRESS PERIOD   24
 UBUDSV SAVING "    UZF RECHARGE" ON UNIT 61 AT TIME STEP  1, STRESS PERIOD   24
 UBDSV3 SAVING "    UZF RECHARGE" ON UNIT  70 AT TIME STEP  1, STRESS PERIOD  24
 UBUDSV SAVING " SURFACE LEAKAGE" ON UNIT 61 AT TIME STEP  1, STRESS PERIOD   24
 UBDSV3 SAVING " SURFACE LEAKAGE" ON UNIT  70 AT TIME STEP  1, STRESS PERIOD  24
 UBDSV2 SAVING "  STREAM LEAKAGE" ON UNIT  70 AT TIME STEP  1, STRESS PERIOD  24



 UBDSV4 SAVING "             MNW" ON UNIT  70 AT TIME STEP  1, STRESS PERIOD  24
 UBDSV4 SAVING "      FARM WELLS" ON UNIT  70 AT TIME STEP  1, STRESS PERIOD  24
 UBDSV3 SAVING "FARM  NET  RECH." ON UNIT  70 AT TIME STEP  1, STRESS PERIOD  24
 
 SOLVING FOR HEAD 
 TIMESTEP FLAG ... =           7          24           2           1
 TIMESTEP FLAG ... =           8          24           2           2
 TIMESTEP FLAG ... =           9          24           2           3
 TIMESTEP FLAG ... =          10          24           2           4
 TIMESTEP FLAG ... =          11          24           2           5
 TIMESTEP FLAG ... =          12          24           2           6
 TIMESTEP FLAG ... =          13          24           2           7
 TIMESTEP FLAG ... =          14          24           2           8
     8 CALLS TO PCG ROUTINE FOR TIME STEP   2 IN STRESS PERIOD   24
    27 TOTAL ITERATIONS

 OUTPUT CONTROL FOR STRESS PERIOD   24   TIME STEP   2
    PRINT BUDGET
    SAVE HEAD FOR ALL LAYERS
    SAVE BUDGET
 UBDSV1 SAVING "         STORAGE" ON UNIT  70 AT TIME STEP  2, STRESS PERIOD  24
 UBDSV2 SAVING "   CONSTANT HEAD" ON UNIT  70 AT TIME STEP  2, STRESS PERIOD  24
 UBDSV1 SAVING "FLOW RIGHT FACE " ON UNIT  70 AT TIME STEP  2, STRESS PERIOD  24
 UBDSV1 SAVING "FLOW FRONT FACE " ON UNIT  70 AT TIME STEP  2, STRESS PERIOD  24
 UBDSV1 SAVING "FLOW LOWER FACE " ON UNIT  70 AT TIME STEP  2, STRESS PERIOD  24
 UBDSV4 SAVING " HEAD DEP BOUNDS" ON UNIT  70 AT TIME STEP  2, STRESS PERIOD  24
 UBUDSV SAVING "    UZF INFILTR." ON UNIT 61 AT TIME STEP  2, STRESS PERIOD   24
 UBUDSV SAVING "    UZF RECHARGE" ON UNIT 61 AT TIME STEP  2, STRESS PERIOD   24
 UBDSV3 SAVING "    UZF RECHARGE" ON UNIT  70 AT TIME STEP  2, STRESS PERIOD  24
 UBUDSV SAVING " SURFACE LEAKAGE" ON UNIT 61 AT TIME STEP  2, STRESS PERIOD   24
 UBDSV3 SAVING " SURFACE LEAKAGE" ON UNIT  70 AT TIME STEP  2, STRESS PERIOD  24


UNSATURATED ZONE PACKAGE VOLUMETRIC BUDGET FOR  TIME STEP    2 STRESS PERIOD   24
  ------------------------------------------------------------------------------



     CUMULATIVE VOLUMES      L**3       RATES FOR THIS TIME STEP      L**3/T
     ------------------                 ------------------------

           IN:                                      IN:
           ---                                      ---
        INFILTRATION =     2211187.7984          INFILTRATION =        5285.0331

          OUT:                                     OUT:
          ----                                     ----
              UZF ET =       0.0000E+00                UZF ET =       0.0000E+00
        UZF RECHARGE =     1611373.7389          UZF RECHARGE =        6238.3936

            IN - OUT =      599814.0594              IN - OUT =        -953.3605

          STORAGE:                                 STORAGE:
          --------                                 --------
      STORAGE CHANGE =      599736.8370        STORAGE CHANGE =        -953.3642

 PERCENT DISCREPANCY IS DIFFERENCE BETWEEN IN-OUT MINUS CHANGE IN STORAGE
 DIVIDED BY THE AVERAGE OF IN AND OUT TIMES 100

 PERCENT DISCREPANCY =           0.00     PERCENT DISCREPANCY =           0.00






 UBDSV2 SAVING "  STREAM LEAKAGE" ON UNIT  70 AT TIME STEP  2, STRESS PERIOD  24



 UBDSV4 SAVING "             MNW" ON UNIT  70 AT TIME STEP  2, STRESS PERIOD  24
 UBDSV4 SAVING "      FARM WELLS" ON UNIT  70 AT TIME STEP  2, STRESS PERIOD  24
 UBDSV3 SAVING "FARM  NET  RECH." ON UNIT  70 AT TIME STEP  2, STRESS PERIOD  24

 HEAD WILL BE SAVED ON UNIT   22 AT END OF TIME STEP   2, STRESS PERIOD   24
1
  VOLUMETRIC BUDGET FOR ENTIRE MODEL AT END OF TIME STEP  2 IN STRESS PERIOD  24
  ------------------------------------------------------------------------------

     CUMULATIVE VOLUMES      L**3       RATES FOR THIS TIME STEP      L**3/T
     ------------------                 ------------------------

           IN:                                      IN:
           ---                                      ---
             STORAGE =    13485891.0000               STORAGE =           0.0000
       CONSTANT HEAD =           0.0000         CONSTANT HEAD =           0.0000
     HEAD DEP BOUNDS =     4705808.0000       HEAD DEP BOUNDS =        7365.3101
        UZF RECHARGE =     1611373.6250          UZF RECHARGE =        6238.3936
               GW ET =           0.0000                 GW ET =           0.0000
     SURFACE LEAKAGE =           0.0000       SURFACE LEAKAGE =           0.0000
      STREAM LEAKAGE =     9749649.0000        STREAM LEAKAGE =       19444.9141
                 MNW =       41054.4180                   MNW =         111.1707
          FARM WELLS =           0.0000            FARM WELLS =           0.0000
    FARM  NET  RECH. =    11068353.0000      FARM  NET  RECH. =       32847.2148

            TOTAL IN =    40662132.0000              TOTAL IN =       66007.0000

          OUT:                                     OUT:
          ----                                     ----
             STORAGE =     7012440.0000               STORAGE =       46972.6445
       CONSTANT HEAD =           0.0000         CONSTANT HEAD =           0.0000
     HEAD DEP BOUNDS =    12589921.0000       HEAD DEP BOUNDS =       16703.9141
        UZF RECHARGE =           0.0000          UZF RECHARGE =           0.0000
               GW ET =           0.0000                 GW ET =           0.0000
     SURFACE LEAKAGE =        2869.4824       SURFACE LEAKAGE =           0.0000
      STREAM LEAKAGE =     2031493.1250        STREAM LEAKAGE =        1588.3268
                 MNW =     6751926.5000                   MNW =         111.1707
          FARM WELLS =     7127010.5000            FARM WELLS =           0.0000
    FARM  NET  RECH. =     5146375.5000      FARM  NET  RECH. =         626.9481

           TOTAL OUT =    40662036.0000             TOTAL OUT =       66003.0078

            IN - OUT =          96.0000              IN - OUT =           3.9922

 PERCENT DISCREPANCY =           0.00     PERCENT DISCREPANCY =           0.01






          TIME SUMMARY AT END OF TIME STEP   2 IN STRESS PERIOD   24
                    SECONDS     MINUTES      HOURS       DAYS        YEARS
                    -----------------------------------------------------------
   TIME STEP LENGTH 1.31414E+06  21902.      365.04      15.210     4.16427E-02
 STRESS PERIOD TIME 2.62829E+06  43805.      730.08      30.420     8.32854E-02
         TOTAL TIME 6.30789E+07 1.05132E+06  17522.      730.08      1.9989    
1

 Run end date and time (yyyy/mm/dd hh:mm:ss): 2009/10/25 17:56:16
 Elapsed run time:  2.625 Seconds

